version 2
run ConsistencyTest1b-0-20210119-11:18:54-6718
attr configname ConsistencyTest1b
attr datetime 20210119-11:18:54
attr experiment ConsistencyTest1b
attr inifile omnetpp.ini
attr iterationvars ""
attr iterationvarsf ""
attr measurement ""
attr network slottedNetwork
attr processid 6718
attr repetition 0
attr replication #0
attr resultdir results
attr runnumber 0
attr seedset 0
param **.numTransmitters 2
param **.numChannels 500
param **.sendProbability 1
param **.expMean 20s
param **.timeSlotSize 5s
param **.thresh 20s
param **.deterministicInterarrivalTime true
param **.numTransmitters 1
param **.numChannels 1
param **.sendProbability 1
param **.expMean 5s
param **.timeSlotSize 5s
param **.thresh 20s
param **.deterministicInterarrivalTime false

vector 0 slottedNetwork.ch throughput:vector ETV
attr source throughputSignal
vector 1 slottedNetwork.transmitters[0] numPacketCreated:vector ETV
attr source numPacketCreatedSignal
vector 2 slottedNetwork.transmitters[1] numPacketCreated:vector ETV
attr source numPacketCreatedSignal
vector 3 slottedNetwork.receivers[0] numPacketReceived:vector ETV
attr source numPacketReceivedSignal
vector 4 slottedNetwork.receivers[0] responseTime:vector ETV
attr source responseTimeSignal
vector 5 slottedNetwork.receivers[0] threshold:vector ETV
attr source thresholdSignal
vector 6 slottedNetwork.receivers[1] numPacketReceived:vector ETV
attr source numPacketReceivedSignal
vector 7 slottedNetwork.receivers[1] responseTime:vector ETV
attr source responseTimeSignal
vector 8 slottedNetwork.receivers[1] threshold:vector ETV
attr source thresholdSignal
0	1	5	0
0	4	10	0
0	7	15	0
0	12	20	0
0	17	25	2
0	22	30	0
0	25	35	0
0	30	40	0
0	35	45	2
0	40	50	0
0	43	55	0
0	48	60	0
0	53	65	2
0	58	70	0
0	61	75	0
0	66	80	0
0	71	85	2
0	76	90	0
0	79	95	0
0	84	100	0
0	89	105	2
0	94	110	0
0	97	115	0
0	102	120	0
0	107	125	2
0	112	130	0
0	115	135	0
0	120	140	0
0	125	145	2
0	130	150	0
0	133	155	0
0	138	160	0
0	143	165	2
0	148	170	0
0	151	175	0
0	156	180	0
0	161	185	2
0	166	190	0
0	169	195	0
0	174	200	0
0	179	205	2
0	184	210	0
0	187	215	0
0	192	220	0
0	197	225	2
0	202	230	0
0	205	235	0
0	210	240	0
0	215	245	2
0	220	250	0
0	223	255	0
0	228	260	0
0	233	265	2
0	238	270	0
0	241	275	0
0	246	280	0
0	251	285	2
0	256	290	0
0	259	295	0
0	264	300	0
0	269	305	2
0	274	310	0
0	277	315	0
0	282	320	0
0	287	325	2
0	292	330	0
0	295	335	0
0	300	340	0
0	305	345	2
0	310	350	0
0	313	355	0
0	318	360	0
0	323	365	2
0	328	370	0
0	331	375	0
0	336	380	0
0	341	385	2
0	346	390	0
0	349	395	0
0	354	400	0
0	359	405	2
0	364	410	0
0	367	415	0
0	372	420	0
0	377	425	2
0	382	430	0
0	385	435	0
0	390	440	0
0	395	445	2
0	400	450	0
0	403	455	0
0	408	460	0
0	413	465	2
0	418	470	0
0	421	475	0
0	426	480	0
0	431	485	2
0	436	490	0
0	439	495	0
0	444	500	0
0	449	505	2
0	454	510	0
0	457	515	0
0	462	520	0
0	467	525	2
0	472	530	0
0	475	535	0
0	480	540	0
0	485	545	2
0	490	550	0
0	493	555	0
0	498	560	0
0	503	565	2
0	508	570	0
0	511	575	0
0	516	580	0
0	521	585	2
0	526	590	0
0	529	595	0
0	534	600	0
0	539	605	2
0	544	610	0
0	547	615	0
0	552	620	0
0	557	625	2
0	562	630	0
0	565	635	0
0	570	640	0
0	575	645	2
0	580	650	0
0	583	655	0
0	588	660	0
0	593	665	2
0	598	670	0
0	601	675	0
0	606	680	0
0	611	685	2
0	616	690	0
0	619	695	0
0	624	700	0
0	629	705	2
0	634	710	0
0	637	715	0
0	642	720	0
0	647	725	2
0	652	730	0
0	655	735	0
0	660	740	0
0	665	745	2
0	670	750	0
0	673	755	0
0	678	760	0
0	683	765	2
0	688	770	0
0	691	775	0
0	696	780	0
0	701	785	2
0	706	790	0
0	709	795	0
0	714	800	0
0	719	805	2
0	724	810	0
0	727	815	0
0	732	820	0
0	737	825	2
0	742	830	0
0	745	835	0
0	750	840	0
0	755	845	2
0	760	850	0
0	763	855	0
0	768	860	0
0	773	865	2
0	778	870	0
0	781	875	0
0	786	880	0
0	791	885	2
0	796	890	0
0	799	895	0
0	804	900	0
0	809	905	2
0	814	910	0
0	817	915	0
0	822	920	0
0	827	925	2
0	832	930	0
0	835	935	0
0	840	940	0
0	845	945	2
0	850	950	0
0	853	955	0
0	858	960	0
0	863	965	2
0	868	970	0
0	871	975	0
0	876	980	0
0	881	985	2
0	886	990	0
0	889	995	0
0	894	1000	0
0	899	1005	2
0	904	1010	0
0	907	1015	0
0	912	1020	0
0	917	1025	2
0	922	1030	0
0	925	1035	0
0	930	1040	0
0	935	1045	2
0	940	1050	0
0	943	1055	0
0	948	1060	0
0	953	1065	2
0	958	1070	0
0	961	1075	0
0	966	1080	0
0	971	1085	2
0	976	1090	0
0	979	1095	0
0	984	1100	0
0	989	1105	2
0	994	1110	0
0	997	1115	0
0	1002	1120	0
0	1007	1125	2
0	1012	1130	0
0	1015	1135	0
0	1020	1140	0
0	1025	1145	2
0	1030	1150	0
0	1033	1155	0
0	1038	1160	0
0	1043	1165	2
0	1048	1170	0
0	1051	1175	0
0	1056	1180	0
0	1061	1185	2
0	1066	1190	0
0	1069	1195	0
0	1074	1200	0
0	1079	1205	2
0	1084	1210	0
0	1087	1215	0
0	1092	1220	0
0	1097	1225	2
0	1102	1230	0
0	1105	1235	0
0	1110	1240	0
0	1115	1245	2
0	1120	1250	0
0	1123	1255	0
0	1128	1260	0
0	1133	1265	2
0	1138	1270	0
0	1141	1275	0
0	1146	1280	0
0	1151	1285	2
0	1156	1290	0
0	1159	1295	0
0	1164	1300	0
0	1169	1305	2
0	1174	1310	0
0	1177	1315	0
0	1182	1320	0
0	1187	1325	2
0	1192	1330	0
0	1195	1335	0
0	1200	1340	0
0	1205	1345	2
0	1210	1350	0
0	1213	1355	0
0	1218	1360	0
0	1223	1365	2
0	1228	1370	0
0	1231	1375	0
0	1236	1380	0
0	1241	1385	2
0	1246	1390	0
0	1249	1395	0
0	1254	1400	0
0	1259	1405	2
0	1264	1410	0
0	1267	1415	0
0	1272	1420	0
0	1277	1425	2
0	1282	1430	0
0	1285	1435	0
0	1290	1440	0
0	1295	1445	2
0	1300	1450	0
0	1303	1455	0
0	1308	1460	0
0	1313	1465	2
0	1318	1470	0
0	1321	1475	0
0	1326	1480	0
0	1331	1485	2
0	1336	1490	0
0	1339	1495	0
0	1344	1500	0
0	1349	1505	2
0	1354	1510	0
0	1357	1515	0
0	1362	1520	0
0	1367	1525	2
0	1372	1530	0
0	1375	1535	0
0	1380	1540	0
0	1385	1545	2
0	1390	1550	0
0	1393	1555	0
0	1398	1560	0
0	1403	1565	2
0	1408	1570	0
0	1411	1575	0
0	1416	1580	0
0	1421	1585	2
0	1426	1590	0
0	1429	1595	0
0	1434	1600	0
0	1439	1605	2
0	1444	1610	0
0	1447	1615	0
0	1452	1620	0
0	1457	1625	2
0	1462	1630	0
0	1465	1635	0
0	1470	1640	0
0	1475	1645	2
0	1480	1650	0
0	1483	1655	0
0	1488	1660	0
0	1493	1665	2
0	1498	1670	0
0	1501	1675	0
0	1506	1680	0
0	1511	1685	2
0	1516	1690	0
0	1519	1695	0
0	1524	1700	0
0	1529	1705	2
0	1534	1710	0
0	1537	1715	0
0	1542	1720	0
0	1547	1725	2
0	1552	1730	0
0	1555	1735	0
0	1560	1740	0
0	1565	1745	2
0	1570	1750	0
0	1573	1755	0
0	1578	1760	0
0	1583	1765	2
0	1588	1770	0
0	1591	1775	0
0	1596	1780	0
0	1601	1785	2
0	1606	1790	0
0	1609	1795	0
0	1614	1800	0
0	1619	1805	2
0	1624	1810	0
0	1627	1815	0
0	1632	1820	0
0	1637	1825	2
0	1642	1830	0
0	1645	1835	0
0	1650	1840	0
0	1655	1845	2
0	1660	1850	0
0	1663	1855	0
0	1668	1860	0
0	1673	1865	2
0	1678	1870	0
0	1681	1875	0
0	1686	1880	0
0	1691	1885	2
0	1696	1890	0
0	1699	1895	0
0	1704	1900	0
0	1709	1905	2
0	1714	1910	0
0	1717	1915	0
0	1722	1920	0
0	1727	1925	2
0	1732	1930	0
0	1735	1935	0
0	1740	1940	0
0	1745	1945	2
0	1750	1950	0
0	1753	1955	0
0	1758	1960	0
0	1763	1965	2
0	1768	1970	0
0	1771	1975	0
0	1776	1980	0
0	1781	1985	2
0	1786	1990	0
0	1789	1995	0
0	1794	2000	0
0	1799	2005	2
0	1804	2010	0
0	1807	2015	0
0	1812	2020	0
0	1817	2025	2
0	1822	2030	0
0	1825	2035	0
0	1830	2040	0
0	1835	2045	2
0	1840	2050	0
0	1843	2055	0
0	1848	2060	0
0	1853	2065	2
0	1858	2070	0
0	1861	2075	0
0	1866	2080	0
0	1871	2085	2
0	1876	2090	0
0	1879	2095	0
0	1884	2100	0
0	1889	2105	2
0	1894	2110	0
0	1897	2115	0
0	1902	2120	0
0	1907	2125	2
0	1912	2130	0
0	1915	2135	0
0	1920	2140	0
0	1925	2145	2
0	1930	2150	0
0	1933	2155	0
0	1938	2160	0
0	1943	2165	2
0	1948	2170	0
0	1951	2175	0
0	1956	2180	0
0	1961	2185	2
0	1966	2190	0
0	1969	2195	0
0	1974	2200	0
0	1979	2205	2
0	1984	2210	0
0	1987	2215	0
0	1992	2220	0
0	1997	2225	2
0	2002	2230	0
0	2005	2235	0
0	2010	2240	0
0	2015	2245	2
0	2020	2250	0
0	2023	2255	0
0	2028	2260	0
0	2033	2265	2
0	2038	2270	0
0	2041	2275	0
0	2046	2280	0
0	2051	2285	2
0	2056	2290	0
0	2059	2295	0
0	2064	2300	0
0	2069	2305	2
0	2074	2310	0
0	2077	2315	0
0	2082	2320	0
0	2087	2325	2
0	2092	2330	0
0	2095	2335	0
0	2100	2340	0
0	2105	2345	2
0	2110	2350	0
0	2113	2355	0
0	2118	2360	0
0	2123	2365	2
0	2128	2370	0
0	2131	2375	0
0	2136	2380	0
0	2141	2385	2
0	2146	2390	0
0	2149	2395	0
0	2154	2400	0
0	2159	2405	2
0	2164	2410	0
0	2167	2415	0
0	2172	2420	0
0	2177	2425	2
0	2182	2430	0
0	2185	2435	0
0	2190	2440	0
0	2195	2445	2
0	2200	2450	0
0	2203	2455	0
0	2208	2460	0
0	2213	2465	2
0	2218	2470	0
0	2221	2475	0
0	2226	2480	0
0	2231	2485	2
0	2236	2490	0
0	2239	2495	0
0	2244	2500	0
0	2249	2505	2
0	2254	2510	0
0	2257	2515	0
0	2262	2520	0
0	2267	2525	2
0	2272	2530	0
0	2275	2535	0
0	2280	2540	0
0	2285	2545	2
0	2290	2550	0
0	2293	2555	0
0	2298	2560	0
0	2303	2565	2
0	2308	2570	0
0	2311	2575	0
0	2316	2580	0
0	2321	2585	2
0	2326	2590	0
0	2329	2595	0
0	2334	2600	0
0	2339	2605	2
0	2344	2610	0
0	2347	2615	0
0	2352	2620	0
0	2357	2625	2
0	2362	2630	0
0	2365	2635	0
0	2370	2640	0
0	2375	2645	2
0	2380	2650	0
0	2383	2655	0
0	2388	2660	0
0	2393	2665	2
0	2398	2670	0
0	2401	2675	0
0	2406	2680	0
0	2411	2685	2
0	2416	2690	0
0	2419	2695	0
0	2424	2700	0
0	2429	2705	2
0	2434	2710	0
0	2437	2715	0
0	2442	2720	0
0	2447	2725	2
0	2452	2730	0
0	2455	2735	0
0	2460	2740	0
0	2465	2745	2
0	2470	2750	0
0	2473	2755	0
0	2478	2760	0
0	2483	2765	2
0	2488	2770	0
0	2491	2775	0
0	2496	2780	0
0	2501	2785	2
0	2506	2790	0
0	2509	2795	0
0	2514	2800	0
0	2519	2805	2
0	2524	2810	0
0	2527	2815	0
0	2532	2820	0
0	2537	2825	2
0	2542	2830	0
0	2545	2835	0
0	2550	2840	0
0	2555	2845	2
0	2560	2850	0
0	2563	2855	0
0	2568	2860	0
0	2573	2865	2
0	2578	2870	0
0	2581	2875	0
0	2586	2880	0
0	2591	2885	2
0	2596	2890	0
0	2599	2895	0
0	2604	2900	0
0	2609	2905	2
0	2614	2910	0
0	2617	2915	0
0	2622	2920	0
0	2627	2925	2
0	2632	2930	0
0	2635	2935	0
0	2640	2940	0
0	2645	2945	2
0	2650	2950	0
0	2653	2955	0
0	2658	2960	0
0	2663	2965	2
0	2668	2970	0
0	2671	2975	0
0	2676	2980	0
0	2681	2985	2
0	2686	2990	0
0	2689	2995	0
0	2694	3000	0
0	2699	3005	2
0	2704	3010	0
0	2707	3015	0
0	2712	3020	0
0	2717	3025	2
0	2722	3030	0
0	2725	3035	0
0	2730	3040	0
0	2735	3045	2
0	2740	3050	0
0	2743	3055	0
0	2748	3060	0
0	2753	3065	2
0	2758	3070	0
0	2761	3075	0
0	2766	3080	0
0	2771	3085	2
0	2776	3090	0
0	2779	3095	0
0	2784	3100	0
0	2789	3105	2
0	2794	3110	0
0	2797	3115	0
0	2802	3120	0
0	2807	3125	2
0	2812	3130	0
0	2815	3135	0
0	2820	3140	0
0	2825	3145	2
0	2830	3150	0
0	2833	3155	0
0	2838	3160	0
0	2843	3165	2
0	2848	3170	0
0	2851	3175	0
0	2856	3180	0
0	2861	3185	2
0	2866	3190	0
0	2869	3195	0
0	2874	3200	0
0	2879	3205	2
0	2884	3210	0
0	2887	3215	0
0	2892	3220	0
0	2897	3225	2
0	2902	3230	0
0	2905	3235	0
0	2910	3240	0
0	2915	3245	2
0	2920	3250	0
0	2923	3255	0
0	2928	3260	0
0	2933	3265	2
0	2938	3270	0
0	2941	3275	0
0	2946	3280	0
0	2951	3285	2
0	2956	3290	0
0	2959	3295	0
0	2964	3300	0
0	2969	3305	2
0	2974	3310	0
0	2977	3315	0
0	2982	3320	0
0	2987	3325	2
0	2992	3330	0
0	2995	3335	0
0	3000	3340	0
0	3005	3345	2
0	3010	3350	0
0	3013	3355	0
0	3018	3360	0
0	3023	3365	2
0	3028	3370	0
0	3031	3375	0
0	3036	3380	0
0	3041	3385	2
0	3046	3390	0
0	3049	3395	0
0	3054	3400	0
0	3059	3405	2
0	3064	3410	0
0	3067	3415	0
0	3072	3420	0
0	3077	3425	2
0	3082	3430	0
0	3085	3435	0
0	3090	3440	0
0	3095	3445	2
0	3100	3450	0
0	3103	3455	0
0	3108	3460	0
0	3113	3465	2
0	3118	3470	0
0	3121	3475	0
0	3126	3480	0
0	3131	3485	2
0	3136	3490	0
0	3139	3495	0
0	3144	3500	0
0	3149	3505	2
0	3154	3510	0
0	3157	3515	0
0	3162	3520	0
0	3167	3525	2
0	3172	3530	0
0	3175	3535	0
0	3180	3540	0
0	3185	3545	2
0	3190	3550	0
0	3193	3555	0
0	3198	3560	0
0	3203	3565	2
0	3208	3570	0
0	3211	3575	0
0	3216	3580	0
0	3221	3585	2
0	3226	3590	0
0	3229	3595	0
0	3234	3600	0
1	10	20	1
1	28	40	1
1	46	60	1
1	64	80	1
1	82	100	1
1	100	120	1
1	118	140	1
1	136	160	1
1	154	180	1
1	172	200	1
1	190	220	1
1	208	240	1
1	226	260	1
1	244	280	1
1	262	300	1
1	280	320	1
1	298	340	1
1	316	360	1
1	334	380	1
1	352	400	1
1	370	420	1
1	388	440	1
1	406	460	1
1	424	480	1
1	442	500	1
1	460	520	1
1	478	540	1
1	496	560	1
1	514	580	1
1	532	600	1
1	550	620	1
1	568	640	1
1	586	660	1
1	604	680	1
1	622	700	1
1	640	720	1
1	658	740	1
1	676	760	1
1	694	780	1
1	712	800	1
1	730	820	1
1	748	840	1
1	766	860	1
1	784	880	1
1	802	900	1
1	820	920	1
1	838	940	1
1	856	960	1
1	874	980	1
1	892	1000	1
1	910	1020	1
1	928	1040	1
1	946	1060	1
1	964	1080	1
1	982	1100	1
1	1000	1120	1
1	1018	1140	1
1	1036	1160	1
1	1054	1180	1
1	1072	1200	1
1	1090	1220	1
1	1108	1240	1
1	1126	1260	1
1	1144	1280	1
1	1162	1300	1
1	1180	1320	1
1	1198	1340	1
1	1216	1360	1
1	1234	1380	1
1	1252	1400	1
1	1270	1420	1
1	1288	1440	1
1	1306	1460	1
1	1324	1480	1
1	1342	1500	1
1	1360	1520	1
1	1378	1540	1
1	1396	1560	1
1	1414	1580	1
1	1432	1600	1
1	1450	1620	1
1	1468	1640	1
1	1486	1660	1
1	1504	1680	1
1	1522	1700	1
1	1540	1720	1
1	1558	1740	1
1	1576	1760	1
1	1594	1780	1
1	1612	1800	1
1	1630	1820	1
1	1648	1840	1
1	1666	1860	1
1	1684	1880	1
1	1702	1900	1
1	1720	1920	1
1	1738	1940	1
1	1756	1960	1
1	1774	1980	1
1	1792	2000	1
1	1810	2020	1
1	1828	2040	1
1	1846	2060	1
1	1864	2080	1
1	1882	2100	1
1	1900	2120	1
1	1918	2140	1
1	1936	2160	1
1	1954	2180	1
1	1972	2200	1
1	1990	2220	1
1	2008	2240	1
1	2026	2260	1
1	2044	2280	1
1	2062	2300	1
1	2080	2320	1
1	2098	2340	1
1	2116	2360	1
1	2134	2380	1
1	2152	2400	1
1	2170	2420	1
1	2188	2440	1
1	2206	2460	1
1	2224	2480	1
1	2242	2500	1
1	2260	2520	1
1	2278	2540	1
1	2296	2560	1
1	2314	2580	1
1	2332	2600	1
1	2350	2620	1
1	2368	2640	1
1	2386	2660	1
1	2404	2680	1
1	2422	2700	1
1	2440	2720	1
1	2458	2740	1
1	2476	2760	1
1	2494	2780	1
1	2512	2800	1
1	2530	2820	1
1	2548	2840	1
1	2566	2860	1
1	2584	2880	1
1	2602	2900	1
1	2620	2920	1
1	2638	2940	1
1	2656	2960	1
1	2674	2980	1
1	2692	3000	1
1	2710	3020	1
1	2728	3040	1
1	2746	3060	1
1	2764	3080	1
1	2782	3100	1
1	2800	3120	1
1	2818	3140	1
1	2836	3160	1
1	2854	3180	1
1	2872	3200	1
1	2890	3220	1
1	2908	3240	1
1	2926	3260	1
1	2944	3280	1
1	2962	3300	1
1	2980	3320	1
1	2998	3340	1
1	3016	3360	1
1	3034	3380	1
1	3052	3400	1
1	3070	3420	1
1	3088	3440	1
1	3106	3460	1
1	3124	3480	1
1	3142	3500	1
1	3160	3520	1
1	3178	3540	1
1	3196	3560	1
1	3214	3580	1
1	3232	3600	1
2	11	20	1
2	29	40	1
2	47	60	1
2	65	80	1
2	83	100	1
2	101	120	1
2	119	140	1
2	137	160	1
2	155	180	1
2	173	200	1
2	191	220	1
2	209	240	1
2	227	260	1
2	245	280	1
2	263	300	1
2	281	320	1
2	299	340	1
2	317	360	1
2	335	380	1
2	353	400	1
2	371	420	1
2	389	440	1
2	407	460	1
2	425	480	1
2	443	500	1
2	461	520	1
2	479	540	1
2	497	560	1
2	515	580	1
2	533	600	1
2	551	620	1
2	569	640	1
2	587	660	1
2	605	680	1
2	623	700	1
2	641	720	1
2	659	740	1
2	677	760	1
2	695	780	1
2	713	800	1
2	731	820	1
2	749	840	1
2	767	860	1
2	785	880	1
2	803	900	1
2	821	920	1
2	839	940	1
2	857	960	1
2	875	980	1
2	893	1000	1
2	911	1020	1
2	929	1040	1
2	947	1060	1
2	965	1080	1
2	983	1100	1
2	1001	1120	1
2	1019	1140	1
2	1037	1160	1
2	1055	1180	1
2	1073	1200	1
2	1091	1220	1
2	1109	1240	1
2	1127	1260	1
2	1145	1280	1
2	1163	1300	1
2	1181	1320	1
2	1199	1340	1
2	1217	1360	1
2	1235	1380	1
2	1253	1400	1
2	1271	1420	1
2	1289	1440	1
2	1307	1460	1
2	1325	1480	1
2	1343	1500	1
2	1361	1520	1
2	1379	1540	1
2	1397	1560	1
2	1415	1580	1
2	1433	1600	1
2	1451	1620	1
2	1469	1640	1
2	1487	1660	1
2	1505	1680	1
2	1523	1700	1
2	1541	1720	1
2	1559	1740	1
2	1577	1760	1
2	1595	1780	1
2	1613	1800	1
2	1631	1820	1
2	1649	1840	1
2	1667	1860	1
2	1685	1880	1
2	1703	1900	1
2	1721	1920	1
2	1739	1940	1
2	1757	1960	1
2	1775	1980	1
2	1793	2000	1
2	1811	2020	1
2	1829	2040	1
2	1847	2060	1
2	1865	2080	1
2	1883	2100	1
2	1901	2120	1
2	1919	2140	1
2	1937	2160	1
2	1955	2180	1
2	1973	2200	1
2	1991	2220	1
2	2009	2240	1
2	2027	2260	1
2	2045	2280	1
2	2063	2300	1
2	2081	2320	1
2	2099	2340	1
2	2117	2360	1
2	2135	2380	1
2	2153	2400	1
2	2171	2420	1
2	2189	2440	1
2	2207	2460	1
2	2225	2480	1
2	2243	2500	1
2	2261	2520	1
2	2279	2540	1
2	2297	2560	1
2	2315	2580	1
2	2333	2600	1
2	2351	2620	1
2	2369	2640	1
2	2387	2660	1
2	2405	2680	1
2	2423	2700	1
2	2441	2720	1
2	2459	2740	1
2	2477	2760	1
2	2495	2780	1
2	2513	2800	1
2	2531	2820	1
2	2549	2840	1
2	2567	2860	1
2	2585	2880	1
2	2603	2900	1
2	2621	2920	1
2	2639	2940	1
2	2657	2960	1
2	2675	2980	1
2	2693	3000	1
2	2711	3020	1
2	2729	3040	1
2	2747	3060	1
2	2765	3080	1
2	2783	3100	1
2	2801	3120	1
2	2819	3140	1
2	2837	3160	1
2	2855	3180	1
2	2873	3200	1
2	2891	3220	1
2	2909	3240	1
2	2927	3260	1
2	2945	3280	1
2	2963	3300	1
2	2981	3320	1
2	2999	3340	1
2	3017	3360	1
2	3035	3380	1
2	3053	3400	1
2	3071	3420	1
2	3089	3440	1
2	3107	3460	1
2	3125	3480	1
2	3143	3500	1
2	3161	3520	1
2	3179	3540	1
2	3197	3560	1
2	3215	3580	1
2	3233	3600	1
3	19	25	1
3	37	45	1
3	55	65	1
3	73	85	1
3	91	105	1
3	109	125	1
3	127	145	1
3	145	165	1
3	163	185	1
3	181	205	1
3	199	225	1
3	217	245	1
3	235	265	1
3	253	285	1
3	271	305	1
3	289	325	1
3	307	345	1
3	325	365	1
3	343	385	1
3	361	405	1
3	379	425	1
3	397	445	1
3	415	465	1
3	433	485	1
3	451	505	1
3	469	525	1
3	487	545	1
3	505	565	1
3	523	585	1
3	541	605	1
3	559	625	1
3	577	645	1
3	595	665	1
3	613	685	1
3	631	705	1
3	649	725	1
3	667	745	1
3	685	765	1
3	703	785	1
3	721	805	1
3	739	825	1
3	757	845	1
3	775	865	1
3	793	885	1
3	811	905	1
3	829	925	1
3	847	945	1
3	865	965	1
3	883	985	1
3	901	1005	1
3	919	1025	1
3	937	1045	1
3	955	1065	1
3	973	1085	1
3	991	1105	1
3	1009	1125	1
3	1027	1145	1
3	1045	1165	1
3	1063	1185	1
3	1081	1205	1
3	1099	1225	1
3	1117	1245	1
3	1135	1265	1
3	1153	1285	1
3	1171	1305	1
3	1189	1325	1
3	1207	1345	1
3	1225	1365	1
3	1243	1385	1
3	1261	1405	1
3	1279	1425	1
3	1297	1445	1
3	1315	1465	1
3	1333	1485	1
3	1351	1505	1
3	1369	1525	1
3	1387	1545	1
3	1405	1565	1
3	1423	1585	1
3	1441	1605	1
3	1459	1625	1
3	1477	1645	1
3	1495	1665	1
3	1513	1685	1
3	1531	1705	1
3	1549	1725	1
3	1567	1745	1
3	1585	1765	1
3	1603	1785	1
3	1621	1805	1
3	1639	1825	1
3	1657	1845	1
3	1675	1865	1
3	1693	1885	1
3	1711	1905	1
3	1729	1925	1
3	1747	1945	1
3	1765	1965	1
3	1783	1985	1
3	1801	2005	1
3	1819	2025	1
3	1837	2045	1
3	1855	2065	1
3	1873	2085	1
3	1891	2105	1
3	1909	2125	1
3	1927	2145	1
3	1945	2165	1
3	1963	2185	1
3	1981	2205	1
3	1999	2225	1
3	2017	2245	1
3	2035	2265	1
3	2053	2285	1
3	2071	2305	1
3	2089	2325	1
3	2107	2345	1
3	2125	2365	1
3	2143	2385	1
3	2161	2405	1
3	2179	2425	1
3	2197	2445	1
3	2215	2465	1
3	2233	2485	1
3	2251	2505	1
3	2269	2525	1
3	2287	2545	1
3	2305	2565	1
3	2323	2585	1
3	2341	2605	1
3	2359	2625	1
3	2377	2645	1
3	2395	2665	1
3	2413	2685	1
3	2431	2705	1
3	2449	2725	1
3	2467	2745	1
3	2485	2765	1
3	2503	2785	1
3	2521	2805	1
3	2539	2825	1
3	2557	2845	1
3	2575	2865	1
3	2593	2885	1
3	2611	2905	1
3	2629	2925	1
3	2647	2945	1
3	2665	2965	1
3	2683	2985	1
3	2701	3005	1
3	2719	3025	1
3	2737	3045	1
3	2755	3065	1
3	2773	3085	1
3	2791	3105	1
3	2809	3125	1
3	2827	3145	1
3	2845	3165	1
3	2863	3185	1
3	2881	3205	1
3	2899	3225	1
3	2917	3245	1
3	2935	3265	1
3	2953	3285	1
3	2971	3305	1
3	2989	3325	1
3	3007	3345	1
3	3025	3365	1
3	3043	3385	1
3	3061	3405	1
3	3079	3425	1
3	3097	3445	1
3	3115	3465	1
3	3133	3485	1
3	3151	3505	1
3	3169	3525	1
3	3187	3545	1
3	3205	3565	1
3	3223	3585	1
4	19	25	5
4	37	45	5
4	55	65	5
4	73	85	5
4	91	105	5
4	109	125	5
4	127	145	5
4	145	165	5
4	163	185	5
4	181	205	5
4	199	225	5
4	217	245	5
4	235	265	5
4	253	285	5
4	271	305	5
4	289	325	5
4	307	345	5
4	325	365	5
4	343	385	5
4	361	405	5
4	379	425	5
4	397	445	5
4	415	465	5
4	433	485	5
4	451	505	5
4	469	525	5
4	487	545	5
4	505	565	5
4	523	585	5
4	541	605	5
4	559	625	5
4	577	645	5
4	595	665	5
4	613	685	5
4	631	705	5
4	649	725	5
4	667	745	5
4	685	765	5
4	703	785	5
4	721	805	5
4	739	825	5
4	757	845	5
4	775	865	5
4	793	885	5
4	811	905	5
4	829	925	5
4	847	945	5
4	865	965	5
4	883	985	5
4	901	1005	5
4	919	1025	5
4	937	1045	5
4	955	1065	5
4	973	1085	5
4	991	1105	5
4	1009	1125	5
4	1027	1145	5
4	1045	1165	5
4	1063	1185	5
4	1081	1205	5
4	1099	1225	5
4	1117	1245	5
4	1135	1265	5
4	1153	1285	5
4	1171	1305	5
4	1189	1325	5
4	1207	1345	5
4	1225	1365	5
4	1243	1385	5
4	1261	1405	5
4	1279	1425	5
4	1297	1445	5
4	1315	1465	5
4	1333	1485	5
4	1351	1505	5
4	1369	1525	5
4	1387	1545	5
4	1405	1565	5
4	1423	1585	5
4	1441	1605	5
4	1459	1625	5
4	1477	1645	5
4	1495	1665	5
4	1513	1685	5
4	1531	1705	5
4	1549	1725	5
4	1567	1745	5
4	1585	1765	5
4	1603	1785	5
4	1621	1805	5
4	1639	1825	5
4	1657	1845	5
4	1675	1865	5
4	1693	1885	5
4	1711	1905	5
4	1729	1925	5
4	1747	1945	5
4	1765	1965	5
4	1783	1985	5
4	1801	2005	5
4	1819	2025	5
4	1837	2045	5
4	1855	2065	5
4	1873	2085	5
4	1891	2105	5
4	1909	2125	5
4	1927	2145	5
4	1945	2165	5
4	1963	2185	5
4	1981	2205	5
4	1999	2225	5
4	2017	2245	5
4	2035	2265	5
4	2053	2285	5
4	2071	2305	5
4	2089	2325	5
4	2107	2345	5
4	2125	2365	5
4	2143	2385	5
4	2161	2405	5
4	2179	2425	5
4	2197	2445	5
4	2215	2465	5
4	2233	2485	5
4	2251	2505	5
4	2269	2525	5
4	2287	2545	5
4	2305	2565	5
4	2323	2585	5
4	2341	2605	5
4	2359	2625	5
4	2377	2645	5
4	2395	2665	5
4	2413	2685	5
4	2431	2705	5
4	2449	2725	5
4	2467	2745	5
4	2485	2765	5
4	2503	2785	5
4	2521	2805	5
4	2539	2825	5
4	2557	2845	5
4	2575	2865	5
4	2593	2885	5
4	2611	2905	5
4	2629	2925	5
4	2647	2945	5
4	2665	2965	5
4	2683	2985	5
4	2701	3005	5
4	2719	3025	5
4	2737	3045	5
4	2755	3065	5
4	2773	3085	5
4	2791	3105	5
4	2809	3125	5
4	2827	3145	5
4	2845	3165	5
4	2863	3185	5
4	2881	3205	5
4	2899	3225	5
4	2917	3245	5
4	2935	3265	5
4	2953	3285	5
4	2971	3305	5
4	2989	3325	5
4	3007	3345	5
4	3025	3365	5
4	3043	3385	5
4	3061	3405	5
4	3079	3425	5
4	3097	3445	5
4	3115	3465	5
4	3133	3485	5
4	3151	3505	5
4	3169	3525	5
4	3187	3545	5
4	3205	3565	5
4	3223	3585	5
5	19	25	0
5	37	45	0
5	55	65	0
5	73	85	0
5	91	105	0
5	109	125	0
5	127	145	0
5	145	165	0
5	163	185	0
5	181	205	0
5	199	225	0
5	217	245	0
5	235	265	0
5	253	285	0
5	271	305	0
5	289	325	0
5	307	345	0
5	325	365	0
5	343	385	0
5	361	405	0
5	379	425	0
5	397	445	0
5	415	465	0
5	433	485	0
5	451	505	0
5	469	525	0
5	487	545	0
5	505	565	0
5	523	585	0
5	541	605	0
5	559	625	0
5	577	645	0
5	595	665	0
5	613	685	0
5	631	705	0
5	649	725	0
5	667	745	0
5	685	765	0
5	703	785	0
5	721	805	0
5	739	825	0
5	757	845	0
5	775	865	0
5	793	885	0
5	811	905	0
5	829	925	0
5	847	945	0
5	865	965	0
5	883	985	0
5	901	1005	0
5	919	1025	0
5	937	1045	0
5	955	1065	0
5	973	1085	0
5	991	1105	0
5	1009	1125	0
5	1027	1145	0
5	1045	1165	0
5	1063	1185	0
5	1081	1205	0
5	1099	1225	0
5	1117	1245	0
5	1135	1265	0
5	1153	1285	0
5	1171	1305	0
5	1189	1325	0
5	1207	1345	0
5	1225	1365	0
5	1243	1385	0
5	1261	1405	0
5	1279	1425	0
5	1297	1445	0
5	1315	1465	0
5	1333	1485	0
5	1351	1505	0
5	1369	1525	0
5	1387	1545	0
5	1405	1565	0
5	1423	1585	0
5	1441	1605	0
5	1459	1625	0
5	1477	1645	0
5	1495	1665	0
5	1513	1685	0
5	1531	1705	0
5	1549	1725	0
5	1567	1745	0
5	1585	1765	0
5	1603	1785	0
5	1621	1805	0
5	1639	1825	0
5	1657	1845	0
5	1675	1865	0
5	1693	1885	0
5	1711	1905	0
5	1729	1925	0
5	1747	1945	0
5	1765	1965	0
5	1783	1985	0
5	1801	2005	0
5	1819	2025	0
5	1837	2045	0
5	1855	2065	0
5	1873	2085	0
5	1891	2105	0
5	1909	2125	0
5	1927	2145	0
5	1945	2165	0
5	1963	2185	0
5	1981	2205	0
5	1999	2225	0
5	2017	2245	0
5	2035	2265	0
5	2053	2285	0
5	2071	2305	0
5	2089	2325	0
5	2107	2345	0
5	2125	2365	0
5	2143	2385	0
5	2161	2405	0
5	2179	2425	0
5	2197	2445	0
5	2215	2465	0
5	2233	2485	0
5	2251	2505	0
5	2269	2525	0
5	2287	2545	0
5	2305	2565	0
5	2323	2585	0
5	2341	2605	0
5	2359	2625	0
5	2377	2645	0
5	2395	2665	0
5	2413	2685	0
5	2431	2705	0
5	2449	2725	0
5	2467	2745	0
5	2485	2765	0
5	2503	2785	0
5	2521	2805	0
5	2539	2825	0
5	2557	2845	0
5	2575	2865	0
5	2593	2885	0
5	2611	2905	0
5	2629	2925	0
5	2647	2945	0
5	2665	2965	0
5	2683	2985	0
5	2701	3005	0
5	2719	3025	0
5	2737	3045	0
5	2755	3065	0
5	2773	3085	0
5	2791	3105	0
5	2809	3125	0
5	2827	3145	0
5	2845	3165	0
5	2863	3185	0
5	2881	3205	0
5	2899	3225	0
5	2917	3245	0
5	2935	3265	0
5	2953	3285	0
5	2971	3305	0
5	2989	3325	0
5	3007	3345	0
5	3025	3365	0
5	3043	3385	0
5	3061	3405	0
5	3079	3425	0
5	3097	3445	0
5	3115	3465	0
5	3133	3485	0
5	3151	3505	0
5	3169	3525	0
5	3187	3545	0
5	3205	3565	0
5	3223	3585	0
6	21	25	1
6	39	45	1
6	57	65	1
6	75	85	1
6	93	105	1
6	111	125	1
6	129	145	1
6	147	165	1
6	165	185	1
6	183	205	1
6	201	225	1
6	219	245	1
6	237	265	1
6	255	285	1
6	273	305	1
6	291	325	1
6	309	345	1
6	327	365	1
6	345	385	1
6	363	405	1
6	381	425	1
6	399	445	1
6	417	465	1
6	435	485	1
6	453	505	1
6	471	525	1
6	489	545	1
6	507	565	1
6	525	585	1
6	543	605	1
6	561	625	1
6	579	645	1
6	597	665	1
6	615	685	1
6	633	705	1
6	651	725	1
6	669	745	1
6	687	765	1
6	705	785	1
6	723	805	1
6	741	825	1
6	759	845	1
6	777	865	1
6	795	885	1
6	813	905	1
6	831	925	1
6	849	945	1
6	867	965	1
6	885	985	1
6	903	1005	1
6	921	1025	1
6	939	1045	1
6	957	1065	1
6	975	1085	1
6	993	1105	1
6	1011	1125	1
6	1029	1145	1
6	1047	1165	1
6	1065	1185	1
6	1083	1205	1
6	1101	1225	1
6	1119	1245	1
6	1137	1265	1
6	1155	1285	1
6	1173	1305	1
6	1191	1325	1
6	1209	1345	1
6	1227	1365	1
6	1245	1385	1
6	1263	1405	1
6	1281	1425	1
6	1299	1445	1
6	1317	1465	1
6	1335	1485	1
6	1353	1505	1
6	1371	1525	1
6	1389	1545	1
6	1407	1565	1
6	1425	1585	1
6	1443	1605	1
6	1461	1625	1
6	1479	1645	1
6	1497	1665	1
6	1515	1685	1
6	1533	1705	1
6	1551	1725	1
6	1569	1745	1
6	1587	1765	1
6	1605	1785	1
6	1623	1805	1
6	1641	1825	1
6	1659	1845	1
6	1677	1865	1
6	1695	1885	1
6	1713	1905	1
6	1731	1925	1
6	1749	1945	1
6	1767	1965	1
6	1785	1985	1
6	1803	2005	1
6	1821	2025	1
6	1839	2045	1
6	1857	2065	1
6	1875	2085	1
6	1893	2105	1
6	1911	2125	1
6	1929	2145	1
6	1947	2165	1
6	1965	2185	1
6	1983	2205	1
6	2001	2225	1
6	2019	2245	1
6	2037	2265	1
6	2055	2285	1
6	2073	2305	1
6	2091	2325	1
6	2109	2345	1
6	2127	2365	1
6	2145	2385	1
6	2163	2405	1
6	2181	2425	1
6	2199	2445	1
6	2217	2465	1
6	2235	2485	1
6	2253	2505	1
6	2271	2525	1
6	2289	2545	1
6	2307	2565	1
6	2325	2585	1
6	2343	2605	1
6	2361	2625	1
6	2379	2645	1
6	2397	2665	1
6	2415	2685	1
6	2433	2705	1
6	2451	2725	1
6	2469	2745	1
6	2487	2765	1
6	2505	2785	1
6	2523	2805	1
6	2541	2825	1
6	2559	2845	1
6	2577	2865	1
6	2595	2885	1
6	2613	2905	1
6	2631	2925	1
6	2649	2945	1
6	2667	2965	1
6	2685	2985	1
6	2703	3005	1
6	2721	3025	1
6	2739	3045	1
6	2757	3065	1
6	2775	3085	1
6	2793	3105	1
6	2811	3125	1
6	2829	3145	1
6	2847	3165	1
6	2865	3185	1
6	2883	3205	1
6	2901	3225	1
6	2919	3245	1
6	2937	3265	1
6	2955	3285	1
6	2973	3305	1
6	2991	3325	1
6	3009	3345	1
6	3027	3365	1
6	3045	3385	1
6	3063	3405	1
6	3081	3425	1
6	3099	3445	1
6	3117	3465	1
6	3135	3485	1
6	3153	3505	1
6	3171	3525	1
6	3189	3545	1
6	3207	3565	1
6	3225	3585	1
7	21	25	5
7	39	45	5
7	57	65	5
7	75	85	5
7	93	105	5
7	111	125	5
7	129	145	5
7	147	165	5
7	165	185	5
7	183	205	5
7	201	225	5
7	219	245	5
7	237	265	5
7	255	285	5
7	273	305	5
7	291	325	5
7	309	345	5
7	327	365	5
7	345	385	5
7	363	405	5
7	381	425	5
7	399	445	5
7	417	465	5
7	435	485	5
7	453	505	5
7	471	525	5
7	489	545	5
7	507	565	5
7	525	585	5
7	543	605	5
7	561	625	5
7	579	645	5
7	597	665	5
7	615	685	5
7	633	705	5
7	651	725	5
7	669	745	5
7	687	765	5
7	705	785	5
7	723	805	5
7	741	825	5
7	759	845	5
7	777	865	5
7	795	885	5
7	813	905	5
7	831	925	5
7	849	945	5
7	867	965	5
7	885	985	5
7	903	1005	5
7	921	1025	5
7	939	1045	5
7	957	1065	5
7	975	1085	5
7	993	1105	5
7	1011	1125	5
7	1029	1145	5
7	1047	1165	5
7	1065	1185	5
7	1083	1205	5
7	1101	1225	5
7	1119	1245	5
7	1137	1265	5
7	1155	1285	5
7	1173	1305	5
7	1191	1325	5
7	1209	1345	5
7	1227	1365	5
7	1245	1385	5
7	1263	1405	5
7	1281	1425	5
7	1299	1445	5
7	1317	1465	5
7	1335	1485	5
7	1353	1505	5
7	1371	1525	5
7	1389	1545	5
7	1407	1565	5
7	1425	1585	5
7	1443	1605	5
7	1461	1625	5
7	1479	1645	5
7	1497	1665	5
7	1515	1685	5
7	1533	1705	5
7	1551	1725	5
7	1569	1745	5
7	1587	1765	5
7	1605	1785	5
7	1623	1805	5
7	1641	1825	5
7	1659	1845	5
7	1677	1865	5
7	1695	1885	5
7	1713	1905	5
7	1731	1925	5
7	1749	1945	5
7	1767	1965	5
7	1785	1985	5
7	1803	2005	5
7	1821	2025	5
7	1839	2045	5
7	1857	2065	5
7	1875	2085	5
7	1893	2105	5
7	1911	2125	5
7	1929	2145	5
7	1947	2165	5
7	1965	2185	5
7	1983	2205	5
7	2001	2225	5
7	2019	2245	5
7	2037	2265	5
7	2055	2285	5
7	2073	2305	5
7	2091	2325	5
7	2109	2345	5
7	2127	2365	5
7	2145	2385	5
7	2163	2405	5
7	2181	2425	5
7	2199	2445	5
7	2217	2465	5
7	2235	2485	5
7	2253	2505	5
7	2271	2525	5
7	2289	2545	5
7	2307	2565	5
7	2325	2585	5
7	2343	2605	5
7	2361	2625	5
7	2379	2645	5
7	2397	2665	5
7	2415	2685	5
7	2433	2705	5
7	2451	2725	5
7	2469	2745	5
7	2487	2765	5
7	2505	2785	5
7	2523	2805	5
7	2541	2825	5
7	2559	2845	5
7	2577	2865	5
7	2595	2885	5
7	2613	2905	5
7	2631	2925	5
7	2649	2945	5
7	2667	2965	5
7	2685	2985	5
7	2703	3005	5
7	2721	3025	5
7	2739	3045	5
7	2757	3065	5
7	2775	3085	5
7	2793	3105	5
7	2811	3125	5
7	2829	3145	5
7	2847	3165	5
7	2865	3185	5
7	2883	3205	5
7	2901	3225	5
7	2919	3245	5
7	2937	3265	5
7	2955	3285	5
7	2973	3305	5
7	2991	3325	5
7	3009	3345	5
7	3027	3365	5
7	3045	3385	5
7	3063	3405	5
7	3081	3425	5
7	3099	3445	5
7	3117	3465	5
7	3135	3485	5
7	3153	3505	5
7	3171	3525	5
7	3189	3545	5
7	3207	3565	5
7	3225	3585	5
8	21	25	0
8	39	45	0
8	57	65	0
8	75	85	0
8	93	105	0
8	111	125	0
8	129	145	0
8	147	165	0
8	165	185	0
8	183	205	0
8	201	225	0
8	219	245	0
8	237	265	0
8	255	285	0
8	273	305	0
8	291	325	0
8	309	345	0
8	327	365	0
8	345	385	0
8	363	405	0
8	381	425	0
8	399	445	0
8	417	465	0
8	435	485	0
8	453	505	0
8	471	525	0
8	489	545	0
8	507	565	0
8	525	585	0
8	543	605	0
8	561	625	0
8	579	645	0
8	597	665	0
8	615	685	0
8	633	705	0
8	651	725	0
8	669	745	0
8	687	765	0
8	705	785	0
8	723	805	0
8	741	825	0
8	759	845	0
8	777	865	0
8	795	885	0
8	813	905	0
8	831	925	0
8	849	945	0
8	867	965	0
8	885	985	0
8	903	1005	0
8	921	1025	0
8	939	1045	0
8	957	1065	0
8	975	1085	0
8	993	1105	0
8	1011	1125	0
8	1029	1145	0
8	1047	1165	0
8	1065	1185	0
8	1083	1205	0
8	1101	1225	0
8	1119	1245	0
8	1137	1265	0
8	1155	1285	0
8	1173	1305	0
8	1191	1325	0
8	1209	1345	0
8	1227	1365	0
8	1245	1385	0
8	1263	1405	0
8	1281	1425	0
8	1299	1445	0
8	1317	1465	0
8	1335	1485	0
8	1353	1505	0
8	1371	1525	0
8	1389	1545	0
8	1407	1565	0
8	1425	1585	0
8	1443	1605	0
8	1461	1625	0
8	1479	1645	0
8	1497	1665	0
8	1515	1685	0
8	1533	1705	0
8	1551	1725	0
8	1569	1745	0
8	1587	1765	0
8	1605	1785	0
8	1623	1805	0
8	1641	1825	0
8	1659	1845	0
8	1677	1865	0
8	1695	1885	0
8	1713	1905	0
8	1731	1925	0
8	1749	1945	0
8	1767	1965	0
8	1785	1985	0
8	1803	2005	0
8	1821	2025	0
8	1839	2045	0
8	1857	2065	0
8	1875	2085	0
8	1893	2105	0
8	1911	2125	0
8	1929	2145	0
8	1947	2165	0
8	1965	2185	0
8	1983	2205	0
8	2001	2225	0
8	2019	2245	0
8	2037	2265	0
8	2055	2285	0
8	2073	2305	0
8	2091	2325	0
8	2109	2345	0
8	2127	2365	0
8	2145	2385	0
8	2163	2405	0
8	2181	2425	0
8	2199	2445	0
8	2217	2465	0
8	2235	2485	0
8	2253	2505	0
8	2271	2525	0
8	2289	2545	0
8	2307	2565	0
8	2325	2585	0
8	2343	2605	0
8	2361	2625	0
8	2379	2645	0
8	2397	2665	0
8	2415	2685	0
8	2433	2705	0
8	2451	2725	0
8	2469	2745	0
8	2487	2765	0
8	2505	2785	0
8	2523	2805	0
8	2541	2825	0
8	2559	2845	0
8	2577	2865	0
8	2595	2885	0
8	2613	2905	0
8	2631	2925	0
8	2649	2945	0
8	2667	2965	0
8	2685	2985	0
8	2703	3005	0
8	2721	3025	0
8	2739	3045	0
8	2757	3065	0
8	2775	3085	0
8	2793	3105	0
8	2811	3125	0
8	2829	3145	0
8	2847	3165	0
8	2865	3185	0
8	2883	3205	0
8	2901	3225	0
8	2919	3245	0
8	2937	3265	0
8	2955	3285	0
8	2973	3305	0
8	2991	3325	0
8	3009	3345	0
8	3027	3365	0
8	3045	3385	0
8	3063	3405	0
8	3081	3425	0
8	3099	3445	0
8	3117	3465	0
8	3135	3485	0
8	3153	3505	0
8	3171	3525	0
8	3189	3545	0
8	3207	3565	0
8	3225	3585	0

