version 2
run ConsistencyTest1b-0-20210121-10:38:17-6601
attr configname ConsistencyTest1b
attr datetime 20210121-10:38:17
attr experiment ConsistencyTest1b
attr inifile omnetpp.ini
attr iterationvars ""
attr iterationvarsf ""
attr measurement ""
attr network slottedNetwork
attr processid 6601
attr repetition 0
attr replication #0
attr resultdir results
attr runnumber 0
attr seedset 0
param **.numTransmitters 2
param **.numChannels 500
param **.sendProbability 1
param **.expMean 20s
param **.timeSlotSize 5s
param **.thresh 20s
param **.deterministicInterarrivalTime true
param **.numTransmitters 1
param **.numChannels 1
param **.sendProbability 1
param **.expMean 5s
param **.timeSlotSize 5s
param **.thresh 20s
param **.deterministicInterarrivalTime false

vector 0 slottedNetwork.ch throughput:vector ETV
attr source throughputSignal
vector 1 slottedNetwork.transmitters[0] numPacketOnBuffer:vector ETV
attr source numPacketOnBufferSignal
vector 2 slottedNetwork.transmitters[1] numPacketOnBuffer:vector ETV
attr source numPacketOnBufferSignal
vector 3 slottedNetwork.transmitters[0] numPacketCreated:vector ETV
attr source numPacketCreatedSignal
vector 4 slottedNetwork.transmitters[1] numPacketCreated:vector ETV
attr source numPacketCreatedSignal
vector 5 slottedNetwork.ch wholeResponseTime:vector ETV
attr source wholeResponseTimeSignal
vector 6 slottedNetwork.receivers[0] numPacketReceived:vector ETV
attr source numPacketReceivedSignal
vector 7 slottedNetwork.receivers[0] responseTime:vector ETV
attr source responseTimeSignal
vector 8 slottedNetwork.receivers[0] threshold:vector ETV
attr source thresholdSignal
vector 9 slottedNetwork.receivers[1] numPacketReceived:vector ETV
attr source numPacketReceivedSignal
vector 10 slottedNetwork.receivers[1] responseTime:vector ETV
attr source responseTimeSignal
vector 11 slottedNetwork.receivers[1] threshold:vector ETV
attr source thresholdSignal
0	1	5	0
0	4	10	0
0	7	15	0
0	12	20	0
0	17	25	2
0	22	30	0
0	25	35	0
0	30	40	0
0	35	45	2
0	40	50	0
0	43	55	0
0	48	60	0
0	53	65	2
0	58	70	0
0	61	75	0
0	66	80	0
0	71	85	2
0	76	90	0
0	79	95	0
0	84	100	0
0	89	105	2
0	94	110	0
0	97	115	0
0	102	120	0
0	107	125	2
0	112	130	0
0	115	135	0
0	120	140	0
0	125	145	2
0	130	150	0
0	133	155	0
0	138	160	0
0	143	165	2
0	148	170	0
0	151	175	0
0	156	180	0
0	161	185	2
0	166	190	0
0	169	195	0
0	174	200	0
0	179	205	2
0	184	210	0
0	187	215	0
0	192	220	0
0	197	225	2
0	202	230	0
0	205	235	0
0	210	240	0
0	215	245	2
0	220	250	0
0	223	255	0
0	228	260	0
0	233	265	2
0	238	270	0
0	241	275	0
0	246	280	0
0	251	285	2
0	256	290	0
0	259	295	0
0	264	300	0
0	269	305	2
0	274	310	0
0	277	315	0
0	282	320	0
0	287	325	2
0	292	330	0
0	295	335	0
0	300	340	0
0	305	345	2
0	310	350	0
0	313	355	0
0	318	360	0
0	323	365	2
0	328	370	0
0	331	375	0
0	336	380	0
0	341	385	2
0	346	390	0
0	349	395	0
0	354	400	0
0	359	405	2
0	364	410	0
0	367	415	0
0	372	420	0
0	377	425	2
0	382	430	0
0	385	435	0
0	390	440	0
0	395	445	2
0	400	450	0
0	403	455	0
0	408	460	0
0	413	465	2
0	418	470	0
0	421	475	0
0	426	480	0
0	431	485	2
0	436	490	0
0	439	495	0
0	444	500	0
0	449	505	2
0	454	510	0
0	457	515	0
0	462	520	0
0	467	525	2
0	472	530	0
0	475	535	0
0	480	540	0
0	485	545	2
0	490	550	0
0	493	555	0
0	498	560	0
0	503	565	2
0	508	570	0
0	511	575	0
0	516	580	0
0	521	585	2
0	526	590	0
0	529	595	0
0	534	600	0
0	539	605	2
0	544	610	0
0	547	615	0
0	552	620	0
0	557	625	2
0	562	630	0
0	565	635	0
0	570	640	0
0	575	645	2
0	580	650	0
0	583	655	0
0	588	660	0
0	593	665	2
0	598	670	0
0	601	675	0
0	606	680	0
0	611	685	2
0	616	690	0
0	619	695	0
0	624	700	0
0	629	705	2
0	634	710	0
0	637	715	0
0	642	720	0
0	647	725	2
0	652	730	0
0	655	735	0
0	660	740	0
0	665	745	2
0	670	750	0
0	673	755	0
0	678	760	0
0	683	765	2
0	688	770	0
0	691	775	0
0	696	780	0
0	701	785	2
0	706	790	0
0	709	795	0
0	714	800	0
0	719	805	2
0	724	810	0
0	727	815	0
0	732	820	0
0	737	825	2
0	742	830	0
0	745	835	0
0	750	840	0
0	755	845	2
0	760	850	0
0	763	855	0
0	768	860	0
0	773	865	2
0	778	870	0
0	781	875	0
0	786	880	0
0	791	885	2
0	796	890	0
0	799	895	0
0	804	900	0
0	809	905	2
0	814	910	0
0	817	915	0
0	822	920	0
0	827	925	2
0	832	930	0
0	835	935	0
0	840	940	0
0	845	945	2
0	850	950	0
0	853	955	0
0	858	960	0
0	863	965	2
0	868	970	0
0	871	975	0
0	876	980	0
0	881	985	2
0	886	990	0
0	889	995	0
0	894	1000	0
0	899	1005	2
0	904	1010	0
0	907	1015	0
0	912	1020	0
0	917	1025	2
0	922	1030	0
0	925	1035	0
0	930	1040	0
0	935	1045	2
0	940	1050	0
0	943	1055	0
0	948	1060	0
0	953	1065	2
0	958	1070	0
0	961	1075	0
0	966	1080	0
0	971	1085	2
0	976	1090	0
0	979	1095	0
0	984	1100	0
0	989	1105	2
0	994	1110	0
0	997	1115	0
0	1002	1120	0
0	1007	1125	2
0	1012	1130	0
0	1015	1135	0
0	1020	1140	0
0	1025	1145	2
0	1030	1150	0
0	1033	1155	0
0	1038	1160	0
0	1043	1165	2
0	1048	1170	0
0	1051	1175	0
0	1056	1180	0
0	1061	1185	2
0	1066	1190	0
0	1069	1195	0
0	1074	1200	0
0	1079	1205	2
0	1084	1210	0
0	1087	1215	0
0	1092	1220	0
0	1097	1225	2
0	1102	1230	0
0	1105	1235	0
0	1110	1240	0
0	1115	1245	2
0	1120	1250	0
0	1123	1255	0
0	1128	1260	0
0	1133	1265	2
0	1138	1270	0
0	1141	1275	0
0	1146	1280	0
0	1151	1285	2
0	1156	1290	0
0	1159	1295	0
0	1164	1300	0
0	1169	1305	2
0	1174	1310	0
0	1177	1315	0
0	1182	1320	0
0	1187	1325	2
0	1192	1330	0
0	1195	1335	0
0	1200	1340	0
0	1205	1345	2
0	1210	1350	0
0	1213	1355	0
0	1218	1360	0
0	1223	1365	2
0	1228	1370	0
0	1231	1375	0
0	1236	1380	0
0	1241	1385	2
0	1246	1390	0
0	1249	1395	0
0	1254	1400	0
0	1259	1405	2
0	1264	1410	0
0	1267	1415	0
0	1272	1420	0
0	1277	1425	2
0	1282	1430	0
0	1285	1435	0
0	1290	1440	0
0	1295	1445	2
0	1300	1450	0
0	1303	1455	0
0	1308	1460	0
0	1313	1465	2
0	1318	1470	0
0	1321	1475	0
0	1326	1480	0
0	1331	1485	2
0	1336	1490	0
0	1339	1495	0
0	1344	1500	0
0	1349	1505	2
0	1354	1510	0
0	1357	1515	0
0	1362	1520	0
0	1367	1525	2
0	1372	1530	0
0	1375	1535	0
0	1380	1540	0
0	1385	1545	2
0	1390	1550	0
0	1393	1555	0
0	1398	1560	0
0	1403	1565	2
0	1408	1570	0
0	1411	1575	0
0	1416	1580	0
0	1421	1585	2
0	1426	1590	0
0	1429	1595	0
0	1434	1600	0
0	1439	1605	2
0	1444	1610	0
0	1447	1615	0
0	1452	1620	0
0	1457	1625	2
0	1462	1630	0
0	1465	1635	0
0	1470	1640	0
0	1475	1645	2
0	1480	1650	0
0	1483	1655	0
0	1488	1660	0
0	1493	1665	2
0	1498	1670	0
0	1501	1675	0
0	1506	1680	0
0	1511	1685	2
0	1516	1690	0
0	1519	1695	0
0	1524	1700	0
0	1529	1705	2
0	1534	1710	0
0	1537	1715	0
0	1542	1720	0
0	1547	1725	2
0	1552	1730	0
0	1555	1735	0
0	1560	1740	0
0	1565	1745	2
0	1570	1750	0
0	1573	1755	0
0	1578	1760	0
0	1583	1765	2
0	1588	1770	0
0	1591	1775	0
0	1596	1780	0
0	1601	1785	2
0	1606	1790	0
0	1609	1795	0
0	1614	1800	0
0	1619	1805	2
0	1624	1810	0
0	1627	1815	0
0	1632	1820	0
0	1637	1825	2
0	1642	1830	0
0	1645	1835	0
0	1650	1840	0
0	1655	1845	2
0	1660	1850	0
0	1663	1855	0
0	1668	1860	0
0	1673	1865	2
0	1678	1870	0
0	1681	1875	0
0	1686	1880	0
0	1691	1885	2
0	1696	1890	0
0	1699	1895	0
0	1704	1900	0
0	1709	1905	2
0	1714	1910	0
0	1717	1915	0
0	1722	1920	0
0	1727	1925	2
0	1732	1930	0
0	1735	1935	0
0	1740	1940	0
0	1745	1945	2
0	1750	1950	0
0	1753	1955	0
0	1758	1960	0
0	1763	1965	2
0	1768	1970	0
0	1771	1975	0
0	1776	1980	0
0	1781	1985	2
0	1786	1990	0
0	1789	1995	0
0	1794	2000	0
0	1799	2005	2
0	1804	2010	0
0	1807	2015	0
0	1812	2020	0
0	1817	2025	2
0	1822	2030	0
0	1825	2035	0
0	1830	2040	0
0	1835	2045	2
0	1840	2050	0
0	1843	2055	0
0	1848	2060	0
0	1853	2065	2
0	1858	2070	0
0	1861	2075	0
0	1866	2080	0
0	1871	2085	2
0	1876	2090	0
0	1879	2095	0
0	1884	2100	0
0	1889	2105	2
0	1894	2110	0
0	1897	2115	0
0	1902	2120	0
0	1907	2125	2
0	1912	2130	0
0	1915	2135	0
0	1920	2140	0
0	1925	2145	2
0	1930	2150	0
0	1933	2155	0
0	1938	2160	0
0	1943	2165	2
0	1948	2170	0
0	1951	2175	0
0	1956	2180	0
0	1961	2185	2
0	1966	2190	0
0	1969	2195	0
0	1974	2200	0
0	1979	2205	2
0	1984	2210	0
0	1987	2215	0
0	1992	2220	0
0	1997	2225	2
0	2002	2230	0
0	2005	2235	0
0	2010	2240	0
0	2015	2245	2
0	2020	2250	0
0	2023	2255	0
0	2028	2260	0
0	2033	2265	2
0	2038	2270	0
0	2041	2275	0
0	2046	2280	0
0	2051	2285	2
0	2056	2290	0
0	2059	2295	0
0	2064	2300	0
0	2069	2305	2
0	2074	2310	0
0	2077	2315	0
0	2082	2320	0
0	2087	2325	2
0	2092	2330	0
0	2095	2335	0
0	2100	2340	0
0	2105	2345	2
0	2110	2350	0
0	2113	2355	0
0	2118	2360	0
0	2123	2365	2
0	2128	2370	0
0	2131	2375	0
0	2136	2380	0
0	2141	2385	2
0	2146	2390	0
0	2149	2395	0
0	2154	2400	0
0	2159	2405	2
0	2164	2410	0
0	2167	2415	0
0	2172	2420	0
0	2177	2425	2
0	2182	2430	0
0	2185	2435	0
0	2190	2440	0
0	2195	2445	2
0	2200	2450	0
0	2203	2455	0
0	2208	2460	0
0	2213	2465	2
0	2218	2470	0
0	2221	2475	0
0	2226	2480	0
0	2231	2485	2
0	2236	2490	0
0	2239	2495	0
0	2244	2500	0
0	2249	2505	2
0	2254	2510	0
0	2257	2515	0
0	2262	2520	0
0	2267	2525	2
0	2272	2530	0
0	2275	2535	0
0	2280	2540	0
0	2285	2545	2
0	2290	2550	0
0	2293	2555	0
0	2298	2560	0
0	2303	2565	2
0	2308	2570	0
0	2311	2575	0
0	2316	2580	0
0	2321	2585	2
0	2326	2590	0
0	2329	2595	0
0	2334	2600	0
0	2339	2605	2
0	2344	2610	0
0	2347	2615	0
0	2352	2620	0
0	2357	2625	2
0	2362	2630	0
0	2365	2635	0
0	2370	2640	0
0	2375	2645	2
0	2380	2650	0
0	2383	2655	0
0	2388	2660	0
0	2393	2665	2
0	2398	2670	0
0	2401	2675	0
0	2406	2680	0
0	2411	2685	2
0	2416	2690	0
0	2419	2695	0
0	2424	2700	0
0	2429	2705	2
0	2434	2710	0
0	2437	2715	0
0	2442	2720	0
0	2447	2725	2
0	2452	2730	0
0	2455	2735	0
0	2460	2740	0
0	2465	2745	2
0	2470	2750	0
0	2473	2755	0
0	2478	2760	0
0	2483	2765	2
0	2488	2770	0
0	2491	2775	0
0	2496	2780	0
0	2501	2785	2
0	2506	2790	0
0	2509	2795	0
0	2514	2800	0
0	2519	2805	2
0	2524	2810	0
0	2527	2815	0
0	2532	2820	0
0	2537	2825	2
0	2542	2830	0
0	2545	2835	0
0	2550	2840	0
0	2555	2845	2
0	2560	2850	0
0	2563	2855	0
0	2568	2860	0
0	2573	2865	2
0	2578	2870	0
0	2581	2875	0
0	2586	2880	0
0	2591	2885	2
0	2596	2890	0
0	2599	2895	0
0	2604	2900	0
0	2609	2905	2
0	2614	2910	0
0	2617	2915	0
0	2622	2920	0
0	2627	2925	2
0	2632	2930	0
0	2635	2935	0
0	2640	2940	0
0	2645	2945	2
0	2650	2950	0
0	2653	2955	0
0	2658	2960	0
0	2663	2965	2
0	2668	2970	0
0	2671	2975	0
0	2676	2980	0
0	2681	2985	2
0	2686	2990	0
0	2689	2995	0
0	2694	3000	0
0	2699	3005	2
0	2704	3010	0
0	2707	3015	0
0	2712	3020	0
0	2717	3025	2
0	2722	3030	0
0	2725	3035	0
0	2730	3040	0
0	2735	3045	2
0	2740	3050	0
0	2743	3055	0
0	2748	3060	0
0	2753	3065	2
0	2758	3070	0
0	2761	3075	0
0	2766	3080	0
0	2771	3085	2
0	2776	3090	0
0	2779	3095	0
0	2784	3100	0
0	2789	3105	2
0	2794	3110	0
0	2797	3115	0
0	2802	3120	0
0	2807	3125	2
0	2812	3130	0
0	2815	3135	0
0	2820	3140	0
0	2825	3145	2
0	2830	3150	0
0	2833	3155	0
0	2838	3160	0
0	2843	3165	2
0	2848	3170	0
0	2851	3175	0
0	2856	3180	0
0	2861	3185	2
0	2866	3190	0
0	2869	3195	0
0	2874	3200	0
0	2879	3205	2
0	2884	3210	0
0	2887	3215	0
0	2892	3220	0
0	2897	3225	2
0	2902	3230	0
0	2905	3235	0
0	2910	3240	0
0	2915	3245	2
0	2920	3250	0
0	2923	3255	0
0	2928	3260	0
0	2933	3265	2
0	2938	3270	0
0	2941	3275	0
0	2946	3280	0
0	2951	3285	2
0	2956	3290	0
0	2959	3295	0
0	2964	3300	0
0	2969	3305	2
0	2974	3310	0
0	2977	3315	0
0	2982	3320	0
0	2987	3325	2
0	2992	3330	0
0	2995	3335	0
0	3000	3340	0
0	3005	3345	2
0	3010	3350	0
0	3013	3355	0
0	3018	3360	0
0	3023	3365	2
0	3028	3370	0
0	3031	3375	0
0	3036	3380	0
0	3041	3385	2
0	3046	3390	0
0	3049	3395	0
0	3054	3400	0
0	3059	3405	2
0	3064	3410	0
0	3067	3415	0
0	3072	3420	0
0	3077	3425	2
0	3082	3430	0
0	3085	3435	0
0	3090	3440	0
0	3095	3445	2
0	3100	3450	0
0	3103	3455	0
0	3108	3460	0
0	3113	3465	2
0	3118	3470	0
0	3121	3475	0
0	3126	3480	0
0	3131	3485	2
0	3136	3490	0
0	3139	3495	0
0	3144	3500	0
0	3149	3505	2
0	3154	3510	0
0	3157	3515	0
0	3162	3520	0
0	3167	3525	2
0	3172	3530	0
0	3175	3535	0
0	3180	3540	0
0	3185	3545	2
0	3190	3550	0
0	3193	3555	0
0	3198	3560	0
0	3203	3565	2
0	3208	3570	0
0	3211	3575	0
0	3216	3580	0
0	3221	3585	2
0	3226	3590	0
0	3229	3595	0
0	3234	3600	0
1	2	5	0
1	5	10	0
1	8	15	0
1	10	20	1
1	13	20	1
1	18	25	0
1	23	30	0
1	26	35	0
1	28	40	1
1	31	40	1
1	36	45	0
1	41	50	0
1	44	55	0
1	46	60	1
1	49	60	1
1	54	65	0
1	59	70	0
1	62	75	0
1	64	80	1
1	67	80	1
1	72	85	0
1	77	90	0
1	80	95	0
1	82	100	1
1	85	100	1
1	90	105	0
1	95	110	0
1	98	115	0
1	100	120	1
1	103	120	1
1	108	125	0
1	113	130	0
1	116	135	0
1	118	140	1
1	121	140	1
1	126	145	0
1	131	150	0
1	134	155	0
1	136	160	1
1	139	160	1
1	144	165	0
1	149	170	0
1	152	175	0
1	154	180	1
1	157	180	1
1	162	185	0
1	167	190	0
1	170	195	0
1	172	200	1
1	175	200	1
1	180	205	0
1	185	210	0
1	188	215	0
1	190	220	1
1	193	220	1
1	198	225	0
1	203	230	0
1	206	235	0
1	208	240	1
1	211	240	1
1	216	245	0
1	221	250	0
1	224	255	0
1	226	260	1
1	229	260	1
1	234	265	0
1	239	270	0
1	242	275	0
1	244	280	1
1	247	280	1
1	252	285	0
1	257	290	0
1	260	295	0
1	262	300	1
1	265	300	1
1	270	305	0
1	275	310	0
1	278	315	0
1	280	320	1
1	283	320	1
1	288	325	0
1	293	330	0
1	296	335	0
1	298	340	1
1	301	340	1
1	306	345	0
1	311	350	0
1	314	355	0
1	316	360	1
1	319	360	1
1	324	365	0
1	329	370	0
1	332	375	0
1	334	380	1
1	337	380	1
1	342	385	0
1	347	390	0
1	350	395	0
1	352	400	1
1	355	400	1
1	360	405	0
1	365	410	0
1	368	415	0
1	370	420	1
1	373	420	1
1	378	425	0
1	383	430	0
1	386	435	0
1	388	440	1
1	391	440	1
1	396	445	0
1	401	450	0
1	404	455	0
1	406	460	1
1	409	460	1
1	414	465	0
1	419	470	0
1	422	475	0
1	424	480	1
1	427	480	1
1	432	485	0
1	437	490	0
1	440	495	0
1	442	500	1
1	445	500	1
1	450	505	0
1	455	510	0
1	458	515	0
1	460	520	1
1	463	520	1
1	468	525	0
1	473	530	0
1	476	535	0
1	478	540	1
1	481	540	1
1	486	545	0
1	491	550	0
1	494	555	0
1	496	560	1
1	499	560	1
1	504	565	0
1	509	570	0
1	512	575	0
1	514	580	1
1	517	580	1
1	522	585	0
1	527	590	0
1	530	595	0
1	532	600	1
1	535	600	1
1	540	605	0
1	545	610	0
1	548	615	0
1	550	620	1
1	553	620	1
1	558	625	0
1	563	630	0
1	566	635	0
1	568	640	1
1	571	640	1
1	576	645	0
1	581	650	0
1	584	655	0
1	586	660	1
1	589	660	1
1	594	665	0
1	599	670	0
1	602	675	0
1	604	680	1
1	607	680	1
1	612	685	0
1	617	690	0
1	620	695	0
1	622	700	1
1	625	700	1
1	630	705	0
1	635	710	0
1	638	715	0
1	640	720	1
1	643	720	1
1	648	725	0
1	653	730	0
1	656	735	0
1	658	740	1
1	661	740	1
1	666	745	0
1	671	750	0
1	674	755	0
1	676	760	1
1	679	760	1
1	684	765	0
1	689	770	0
1	692	775	0
1	694	780	1
1	697	780	1
1	702	785	0
1	707	790	0
1	710	795	0
1	712	800	1
1	715	800	1
1	720	805	0
1	725	810	0
1	728	815	0
1	730	820	1
1	733	820	1
1	738	825	0
1	743	830	0
1	746	835	0
1	748	840	1
1	751	840	1
1	756	845	0
1	761	850	0
1	764	855	0
1	766	860	1
1	769	860	1
1	774	865	0
1	779	870	0
1	782	875	0
1	784	880	1
1	787	880	1
1	792	885	0
1	797	890	0
1	800	895	0
1	802	900	1
1	805	900	1
1	810	905	0
1	815	910	0
1	818	915	0
1	820	920	1
1	823	920	1
1	828	925	0
1	833	930	0
1	836	935	0
1	838	940	1
1	841	940	1
1	846	945	0
1	851	950	0
1	854	955	0
1	856	960	1
1	859	960	1
1	864	965	0
1	869	970	0
1	872	975	0
1	874	980	1
1	877	980	1
1	882	985	0
1	887	990	0
1	890	995	0
1	892	1000	1
1	895	1000	1
1	900	1005	0
1	905	1010	0
1	908	1015	0
1	910	1020	1
1	913	1020	1
1	918	1025	0
1	923	1030	0
1	926	1035	0
1	928	1040	1
1	931	1040	1
1	936	1045	0
1	941	1050	0
1	944	1055	0
1	946	1060	1
1	949	1060	1
1	954	1065	0
1	959	1070	0
1	962	1075	0
1	964	1080	1
1	967	1080	1
1	972	1085	0
1	977	1090	0
1	980	1095	0
1	982	1100	1
1	985	1100	1
1	990	1105	0
1	995	1110	0
1	998	1115	0
1	1000	1120	1
1	1003	1120	1
1	1008	1125	0
1	1013	1130	0
1	1016	1135	0
1	1018	1140	1
1	1021	1140	1
1	1026	1145	0
1	1031	1150	0
1	1034	1155	0
1	1036	1160	1
1	1039	1160	1
1	1044	1165	0
1	1049	1170	0
1	1052	1175	0
1	1054	1180	1
1	1057	1180	1
1	1062	1185	0
1	1067	1190	0
1	1070	1195	0
1	1072	1200	1
1	1075	1200	1
1	1080	1205	0
1	1085	1210	0
1	1088	1215	0
1	1090	1220	1
1	1093	1220	1
1	1098	1225	0
1	1103	1230	0
1	1106	1235	0
1	1108	1240	1
1	1111	1240	1
1	1116	1245	0
1	1121	1250	0
1	1124	1255	0
1	1126	1260	1
1	1129	1260	1
1	1134	1265	0
1	1139	1270	0
1	1142	1275	0
1	1144	1280	1
1	1147	1280	1
1	1152	1285	0
1	1157	1290	0
1	1160	1295	0
1	1162	1300	1
1	1165	1300	1
1	1170	1305	0
1	1175	1310	0
1	1178	1315	0
1	1180	1320	1
1	1183	1320	1
1	1188	1325	0
1	1193	1330	0
1	1196	1335	0
1	1198	1340	1
1	1201	1340	1
1	1206	1345	0
1	1211	1350	0
1	1214	1355	0
1	1216	1360	1
1	1219	1360	1
1	1224	1365	0
1	1229	1370	0
1	1232	1375	0
1	1234	1380	1
1	1237	1380	1
1	1242	1385	0
1	1247	1390	0
1	1250	1395	0
1	1252	1400	1
1	1255	1400	1
1	1260	1405	0
1	1265	1410	0
1	1268	1415	0
1	1270	1420	1
1	1273	1420	1
1	1278	1425	0
1	1283	1430	0
1	1286	1435	0
1	1288	1440	1
1	1291	1440	1
1	1296	1445	0
1	1301	1450	0
1	1304	1455	0
1	1306	1460	1
1	1309	1460	1
1	1314	1465	0
1	1319	1470	0
1	1322	1475	0
1	1324	1480	1
1	1327	1480	1
1	1332	1485	0
1	1337	1490	0
1	1340	1495	0
1	1342	1500	1
1	1345	1500	1
1	1350	1505	0
1	1355	1510	0
1	1358	1515	0
1	1360	1520	1
1	1363	1520	1
1	1368	1525	0
1	1373	1530	0
1	1376	1535	0
1	1378	1540	1
1	1381	1540	1
1	1386	1545	0
1	1391	1550	0
1	1394	1555	0
1	1396	1560	1
1	1399	1560	1
1	1404	1565	0
1	1409	1570	0
1	1412	1575	0
1	1414	1580	1
1	1417	1580	1
1	1422	1585	0
1	1427	1590	0
1	1430	1595	0
1	1432	1600	1
1	1435	1600	1
1	1440	1605	0
1	1445	1610	0
1	1448	1615	0
1	1450	1620	1
1	1453	1620	1
1	1458	1625	0
1	1463	1630	0
1	1466	1635	0
1	1468	1640	1
1	1471	1640	1
1	1476	1645	0
1	1481	1650	0
1	1484	1655	0
1	1486	1660	1
1	1489	1660	1
1	1494	1665	0
1	1499	1670	0
1	1502	1675	0
1	1504	1680	1
1	1507	1680	1
1	1512	1685	0
1	1517	1690	0
1	1520	1695	0
1	1522	1700	1
1	1525	1700	1
1	1530	1705	0
1	1535	1710	0
1	1538	1715	0
1	1540	1720	1
1	1543	1720	1
1	1548	1725	0
1	1553	1730	0
1	1556	1735	0
1	1558	1740	1
1	1561	1740	1
1	1566	1745	0
1	1571	1750	0
1	1574	1755	0
1	1576	1760	1
1	1579	1760	1
1	1584	1765	0
1	1589	1770	0
1	1592	1775	0
1	1594	1780	1
1	1597	1780	1
1	1602	1785	0
1	1607	1790	0
1	1610	1795	0
1	1612	1800	1
1	1615	1800	1
1	1620	1805	0
1	1625	1810	0
1	1628	1815	0
1	1630	1820	1
1	1633	1820	1
1	1638	1825	0
1	1643	1830	0
1	1646	1835	0
1	1648	1840	1
1	1651	1840	1
1	1656	1845	0
1	1661	1850	0
1	1664	1855	0
1	1666	1860	1
1	1669	1860	1
1	1674	1865	0
1	1679	1870	0
1	1682	1875	0
1	1684	1880	1
1	1687	1880	1
1	1692	1885	0
1	1697	1890	0
1	1700	1895	0
1	1702	1900	1
1	1705	1900	1
1	1710	1905	0
1	1715	1910	0
1	1718	1915	0
1	1720	1920	1
1	1723	1920	1
1	1728	1925	0
1	1733	1930	0
1	1736	1935	0
1	1738	1940	1
1	1741	1940	1
1	1746	1945	0
1	1751	1950	0
1	1754	1955	0
1	1756	1960	1
1	1759	1960	1
1	1764	1965	0
1	1769	1970	0
1	1772	1975	0
1	1774	1980	1
1	1777	1980	1
1	1782	1985	0
1	1787	1990	0
1	1790	1995	0
1	1792	2000	1
1	1795	2000	1
1	1800	2005	0
1	1805	2010	0
1	1808	2015	0
1	1810	2020	1
1	1813	2020	1
1	1818	2025	0
1	1823	2030	0
1	1826	2035	0
1	1828	2040	1
1	1831	2040	1
1	1836	2045	0
1	1841	2050	0
1	1844	2055	0
1	1846	2060	1
1	1849	2060	1
1	1854	2065	0
1	1859	2070	0
1	1862	2075	0
1	1864	2080	1
1	1867	2080	1
1	1872	2085	0
1	1877	2090	0
1	1880	2095	0
1	1882	2100	1
1	1885	2100	1
1	1890	2105	0
1	1895	2110	0
1	1898	2115	0
1	1900	2120	1
1	1903	2120	1
1	1908	2125	0
1	1913	2130	0
1	1916	2135	0
1	1918	2140	1
1	1921	2140	1
1	1926	2145	0
1	1931	2150	0
1	1934	2155	0
1	1936	2160	1
1	1939	2160	1
1	1944	2165	0
1	1949	2170	0
1	1952	2175	0
1	1954	2180	1
1	1957	2180	1
1	1962	2185	0
1	1967	2190	0
1	1970	2195	0
1	1972	2200	1
1	1975	2200	1
1	1980	2205	0
1	1985	2210	0
1	1988	2215	0
1	1990	2220	1
1	1993	2220	1
1	1998	2225	0
1	2003	2230	0
1	2006	2235	0
1	2008	2240	1
1	2011	2240	1
1	2016	2245	0
1	2021	2250	0
1	2024	2255	0
1	2026	2260	1
1	2029	2260	1
1	2034	2265	0
1	2039	2270	0
1	2042	2275	0
1	2044	2280	1
1	2047	2280	1
1	2052	2285	0
1	2057	2290	0
1	2060	2295	0
1	2062	2300	1
1	2065	2300	1
1	2070	2305	0
1	2075	2310	0
1	2078	2315	0
1	2080	2320	1
1	2083	2320	1
1	2088	2325	0
1	2093	2330	0
1	2096	2335	0
1	2098	2340	1
1	2101	2340	1
1	2106	2345	0
1	2111	2350	0
1	2114	2355	0
1	2116	2360	1
1	2119	2360	1
1	2124	2365	0
1	2129	2370	0
1	2132	2375	0
1	2134	2380	1
1	2137	2380	1
1	2142	2385	0
1	2147	2390	0
1	2150	2395	0
1	2152	2400	1
1	2155	2400	1
1	2160	2405	0
1	2165	2410	0
1	2168	2415	0
1	2170	2420	1
1	2173	2420	1
1	2178	2425	0
1	2183	2430	0
1	2186	2435	0
1	2188	2440	1
1	2191	2440	1
1	2196	2445	0
1	2201	2450	0
1	2204	2455	0
1	2206	2460	1
1	2209	2460	1
1	2214	2465	0
1	2219	2470	0
1	2222	2475	0
1	2224	2480	1
1	2227	2480	1
1	2232	2485	0
1	2237	2490	0
1	2240	2495	0
1	2242	2500	1
1	2245	2500	1
1	2250	2505	0
1	2255	2510	0
1	2258	2515	0
1	2260	2520	1
1	2263	2520	1
1	2268	2525	0
1	2273	2530	0
1	2276	2535	0
1	2278	2540	1
1	2281	2540	1
1	2286	2545	0
1	2291	2550	0
1	2294	2555	0
1	2296	2560	1
1	2299	2560	1
1	2304	2565	0
1	2309	2570	0
1	2312	2575	0
1	2314	2580	1
1	2317	2580	1
1	2322	2585	0
1	2327	2590	0
1	2330	2595	0
1	2332	2600	1
1	2335	2600	1
1	2340	2605	0
1	2345	2610	0
1	2348	2615	0
1	2350	2620	1
1	2353	2620	1
1	2358	2625	0
1	2363	2630	0
1	2366	2635	0
1	2368	2640	1
1	2371	2640	1
1	2376	2645	0
1	2381	2650	0
1	2384	2655	0
1	2386	2660	1
1	2389	2660	1
1	2394	2665	0
1	2399	2670	0
1	2402	2675	0
1	2404	2680	1
1	2407	2680	1
1	2412	2685	0
1	2417	2690	0
1	2420	2695	0
1	2422	2700	1
1	2425	2700	1
1	2430	2705	0
1	2435	2710	0
1	2438	2715	0
1	2440	2720	1
1	2443	2720	1
1	2448	2725	0
1	2453	2730	0
1	2456	2735	0
1	2458	2740	1
1	2461	2740	1
1	2466	2745	0
1	2471	2750	0
1	2474	2755	0
1	2476	2760	1
1	2479	2760	1
1	2484	2765	0
1	2489	2770	0
1	2492	2775	0
1	2494	2780	1
1	2497	2780	1
1	2502	2785	0
1	2507	2790	0
1	2510	2795	0
1	2512	2800	1
1	2515	2800	1
1	2520	2805	0
1	2525	2810	0
1	2528	2815	0
1	2530	2820	1
1	2533	2820	1
1	2538	2825	0
1	2543	2830	0
1	2546	2835	0
1	2548	2840	1
1	2551	2840	1
1	2556	2845	0
1	2561	2850	0
1	2564	2855	0
1	2566	2860	1
1	2569	2860	1
1	2574	2865	0
1	2579	2870	0
1	2582	2875	0
1	2584	2880	1
1	2587	2880	1
1	2592	2885	0
1	2597	2890	0
1	2600	2895	0
1	2602	2900	1
1	2605	2900	1
1	2610	2905	0
1	2615	2910	0
1	2618	2915	0
1	2620	2920	1
1	2623	2920	1
1	2628	2925	0
1	2633	2930	0
1	2636	2935	0
1	2638	2940	1
1	2641	2940	1
1	2646	2945	0
1	2651	2950	0
1	2654	2955	0
1	2656	2960	1
1	2659	2960	1
1	2664	2965	0
1	2669	2970	0
1	2672	2975	0
1	2674	2980	1
1	2677	2980	1
1	2682	2985	0
1	2687	2990	0
1	2690	2995	0
1	2692	3000	1
1	2695	3000	1
1	2700	3005	0
1	2705	3010	0
1	2708	3015	0
1	2710	3020	1
1	2713	3020	1
1	2718	3025	0
1	2723	3030	0
1	2726	3035	0
1	2728	3040	1
1	2731	3040	1
1	2736	3045	0
1	2741	3050	0
1	2744	3055	0
1	2746	3060	1
1	2749	3060	1
1	2754	3065	0
1	2759	3070	0
1	2762	3075	0
1	2764	3080	1
1	2767	3080	1
1	2772	3085	0
1	2777	3090	0
1	2780	3095	0
1	2782	3100	1
1	2785	3100	1
1	2790	3105	0
1	2795	3110	0
1	2798	3115	0
1	2800	3120	1
1	2803	3120	1
1	2808	3125	0
1	2813	3130	0
1	2816	3135	0
1	2818	3140	1
1	2821	3140	1
1	2826	3145	0
1	2831	3150	0
1	2834	3155	0
1	2836	3160	1
1	2839	3160	1
1	2844	3165	0
1	2849	3170	0
1	2852	3175	0
1	2854	3180	1
1	2857	3180	1
1	2862	3185	0
1	2867	3190	0
1	2870	3195	0
1	2872	3200	1
1	2875	3200	1
1	2880	3205	0
1	2885	3210	0
1	2888	3215	0
1	2890	3220	1
1	2893	3220	1
1	2898	3225	0
1	2903	3230	0
1	2906	3235	0
1	2908	3240	1
1	2911	3240	1
1	2916	3245	0
1	2921	3250	0
1	2924	3255	0
1	2926	3260	1
1	2929	3260	1
1	2934	3265	0
1	2939	3270	0
1	2942	3275	0
1	2944	3280	1
1	2947	3280	1
1	2952	3285	0
1	2957	3290	0
1	2960	3295	0
1	2962	3300	1
1	2965	3300	1
1	2970	3305	0
1	2975	3310	0
1	2978	3315	0
1	2980	3320	1
1	2983	3320	1
1	2988	3325	0
1	2993	3330	0
1	2996	3335	0
1	2998	3340	1
1	3001	3340	1
1	3006	3345	0
1	3011	3350	0
1	3014	3355	0
1	3016	3360	1
1	3019	3360	1
1	3024	3365	0
1	3029	3370	0
1	3032	3375	0
1	3034	3380	1
1	3037	3380	1
1	3042	3385	0
1	3047	3390	0
1	3050	3395	0
1	3052	3400	1
1	3055	3400	1
1	3060	3405	0
1	3065	3410	0
1	3068	3415	0
1	3070	3420	1
1	3073	3420	1
1	3078	3425	0
1	3083	3430	0
1	3086	3435	0
1	3088	3440	1
1	3091	3440	1
1	3096	3445	0
1	3101	3450	0
1	3104	3455	0
1	3106	3460	1
1	3109	3460	1
1	3114	3465	0
1	3119	3470	0
1	3122	3475	0
1	3124	3480	1
1	3127	3480	1
1	3132	3485	0
1	3137	3490	0
1	3140	3495	0
1	3142	3500	1
1	3145	3500	1
1	3150	3505	0
1	3155	3510	0
1	3158	3515	0
1	3160	3520	1
1	3163	3520	1
1	3168	3525	0
1	3173	3530	0
1	3176	3535	0
1	3178	3540	1
1	3181	3540	1
1	3186	3545	0
1	3191	3550	0
1	3194	3555	0
1	3196	3560	1
1	3199	3560	1
1	3204	3565	0
1	3209	3570	0
1	3212	3575	0
1	3214	3580	1
1	3217	3580	1
1	3222	3585	0
1	3227	3590	0
1	3230	3595	0
1	3232	3600	1
1	3235	3600	1
2	3	5	0
2	6	10	0
2	9	15	0
2	11	20	1
2	14	20	1
2	20	25	0
2	24	30	0
2	27	35	0
2	29	40	1
2	32	40	1
2	38	45	0
2	42	50	0
2	45	55	0
2	47	60	1
2	50	60	1
2	56	65	0
2	60	70	0
2	63	75	0
2	65	80	1
2	68	80	1
2	74	85	0
2	78	90	0
2	81	95	0
2	83	100	1
2	86	100	1
2	92	105	0
2	96	110	0
2	99	115	0
2	101	120	1
2	104	120	1
2	110	125	0
2	114	130	0
2	117	135	0
2	119	140	1
2	122	140	1
2	128	145	0
2	132	150	0
2	135	155	0
2	137	160	1
2	140	160	1
2	146	165	0
2	150	170	0
2	153	175	0
2	155	180	1
2	158	180	1
2	164	185	0
2	168	190	0
2	171	195	0
2	173	200	1
2	176	200	1
2	182	205	0
2	186	210	0
2	189	215	0
2	191	220	1
2	194	220	1
2	200	225	0
2	204	230	0
2	207	235	0
2	209	240	1
2	212	240	1
2	218	245	0
2	222	250	0
2	225	255	0
2	227	260	1
2	230	260	1
2	236	265	0
2	240	270	0
2	243	275	0
2	245	280	1
2	248	280	1
2	254	285	0
2	258	290	0
2	261	295	0
2	263	300	1
2	266	300	1
2	272	305	0
2	276	310	0
2	279	315	0
2	281	320	1
2	284	320	1
2	290	325	0
2	294	330	0
2	297	335	0
2	299	340	1
2	302	340	1
2	308	345	0
2	312	350	0
2	315	355	0
2	317	360	1
2	320	360	1
2	326	365	0
2	330	370	0
2	333	375	0
2	335	380	1
2	338	380	1
2	344	385	0
2	348	390	0
2	351	395	0
2	353	400	1
2	356	400	1
2	362	405	0
2	366	410	0
2	369	415	0
2	371	420	1
2	374	420	1
2	380	425	0
2	384	430	0
2	387	435	0
2	389	440	1
2	392	440	1
2	398	445	0
2	402	450	0
2	405	455	0
2	407	460	1
2	410	460	1
2	416	465	0
2	420	470	0
2	423	475	0
2	425	480	1
2	428	480	1
2	434	485	0
2	438	490	0
2	441	495	0
2	443	500	1
2	446	500	1
2	452	505	0
2	456	510	0
2	459	515	0
2	461	520	1
2	464	520	1
2	470	525	0
2	474	530	0
2	477	535	0
2	479	540	1
2	482	540	1
2	488	545	0
2	492	550	0
2	495	555	0
2	497	560	1
2	500	560	1
2	506	565	0
2	510	570	0
2	513	575	0
2	515	580	1
2	518	580	1
2	524	585	0
2	528	590	0
2	531	595	0
2	533	600	1
2	536	600	1
2	542	605	0
2	546	610	0
2	549	615	0
2	551	620	1
2	554	620	1
2	560	625	0
2	564	630	0
2	567	635	0
2	569	640	1
2	572	640	1
2	578	645	0
2	582	650	0
2	585	655	0
2	587	660	1
2	590	660	1
2	596	665	0
2	600	670	0
2	603	675	0
2	605	680	1
2	608	680	1
2	614	685	0
2	618	690	0
2	621	695	0
2	623	700	1
2	626	700	1
2	632	705	0
2	636	710	0
2	639	715	0
2	641	720	1
2	644	720	1
2	650	725	0
2	654	730	0
2	657	735	0
2	659	740	1
2	662	740	1
2	668	745	0
2	672	750	0
2	675	755	0
2	677	760	1
2	680	760	1
2	686	765	0
2	690	770	0
2	693	775	0
2	695	780	1
2	698	780	1
2	704	785	0
2	708	790	0
2	711	795	0
2	713	800	1
2	716	800	1
2	722	805	0
2	726	810	0
2	729	815	0
2	731	820	1
2	734	820	1
2	740	825	0
2	744	830	0
2	747	835	0
2	749	840	1
2	752	840	1
2	758	845	0
2	762	850	0
2	765	855	0
2	767	860	1
2	770	860	1
2	776	865	0
2	780	870	0
2	783	875	0
2	785	880	1
2	788	880	1
2	794	885	0
2	798	890	0
2	801	895	0
2	803	900	1
2	806	900	1
2	812	905	0
2	816	910	0
2	819	915	0
2	821	920	1
2	824	920	1
2	830	925	0
2	834	930	0
2	837	935	0
2	839	940	1
2	842	940	1
2	848	945	0
2	852	950	0
2	855	955	0
2	857	960	1
2	860	960	1
2	866	965	0
2	870	970	0
2	873	975	0
2	875	980	1
2	878	980	1
2	884	985	0
2	888	990	0
2	891	995	0
2	893	1000	1
2	896	1000	1
2	902	1005	0
2	906	1010	0
2	909	1015	0
2	911	1020	1
2	914	1020	1
2	920	1025	0
2	924	1030	0
2	927	1035	0
2	929	1040	1
2	932	1040	1
2	938	1045	0
2	942	1050	0
2	945	1055	0
2	947	1060	1
2	950	1060	1
2	956	1065	0
2	960	1070	0
2	963	1075	0
2	965	1080	1
2	968	1080	1
2	974	1085	0
2	978	1090	0
2	981	1095	0
2	983	1100	1
2	986	1100	1
2	992	1105	0
2	996	1110	0
2	999	1115	0
2	1001	1120	1
2	1004	1120	1
2	1010	1125	0
2	1014	1130	0
2	1017	1135	0
2	1019	1140	1
2	1022	1140	1
2	1028	1145	0
2	1032	1150	0
2	1035	1155	0
2	1037	1160	1
2	1040	1160	1
2	1046	1165	0
2	1050	1170	0
2	1053	1175	0
2	1055	1180	1
2	1058	1180	1
2	1064	1185	0
2	1068	1190	0
2	1071	1195	0
2	1073	1200	1
2	1076	1200	1
2	1082	1205	0
2	1086	1210	0
2	1089	1215	0
2	1091	1220	1
2	1094	1220	1
2	1100	1225	0
2	1104	1230	0
2	1107	1235	0
2	1109	1240	1
2	1112	1240	1
2	1118	1245	0
2	1122	1250	0
2	1125	1255	0
2	1127	1260	1
2	1130	1260	1
2	1136	1265	0
2	1140	1270	0
2	1143	1275	0
2	1145	1280	1
2	1148	1280	1
2	1154	1285	0
2	1158	1290	0
2	1161	1295	0
2	1163	1300	1
2	1166	1300	1
2	1172	1305	0
2	1176	1310	0
2	1179	1315	0
2	1181	1320	1
2	1184	1320	1
2	1190	1325	0
2	1194	1330	0
2	1197	1335	0
2	1199	1340	1
2	1202	1340	1
2	1208	1345	0
2	1212	1350	0
2	1215	1355	0
2	1217	1360	1
2	1220	1360	1
2	1226	1365	0
2	1230	1370	0
2	1233	1375	0
2	1235	1380	1
2	1238	1380	1
2	1244	1385	0
2	1248	1390	0
2	1251	1395	0
2	1253	1400	1
2	1256	1400	1
2	1262	1405	0
2	1266	1410	0
2	1269	1415	0
2	1271	1420	1
2	1274	1420	1
2	1280	1425	0
2	1284	1430	0
2	1287	1435	0
2	1289	1440	1
2	1292	1440	1
2	1298	1445	0
2	1302	1450	0
2	1305	1455	0
2	1307	1460	1
2	1310	1460	1
2	1316	1465	0
2	1320	1470	0
2	1323	1475	0
2	1325	1480	1
2	1328	1480	1
2	1334	1485	0
2	1338	1490	0
2	1341	1495	0
2	1343	1500	1
2	1346	1500	1
2	1352	1505	0
2	1356	1510	0
2	1359	1515	0
2	1361	1520	1
2	1364	1520	1
2	1370	1525	0
2	1374	1530	0
2	1377	1535	0
2	1379	1540	1
2	1382	1540	1
2	1388	1545	0
2	1392	1550	0
2	1395	1555	0
2	1397	1560	1
2	1400	1560	1
2	1406	1565	0
2	1410	1570	0
2	1413	1575	0
2	1415	1580	1
2	1418	1580	1
2	1424	1585	0
2	1428	1590	0
2	1431	1595	0
2	1433	1600	1
2	1436	1600	1
2	1442	1605	0
2	1446	1610	0
2	1449	1615	0
2	1451	1620	1
2	1454	1620	1
2	1460	1625	0
2	1464	1630	0
2	1467	1635	0
2	1469	1640	1
2	1472	1640	1
2	1478	1645	0
2	1482	1650	0
2	1485	1655	0
2	1487	1660	1
2	1490	1660	1
2	1496	1665	0
2	1500	1670	0
2	1503	1675	0
2	1505	1680	1
2	1508	1680	1
2	1514	1685	0
2	1518	1690	0
2	1521	1695	0
2	1523	1700	1
2	1526	1700	1
2	1532	1705	0
2	1536	1710	0
2	1539	1715	0
2	1541	1720	1
2	1544	1720	1
2	1550	1725	0
2	1554	1730	0
2	1557	1735	0
2	1559	1740	1
2	1562	1740	1
2	1568	1745	0
2	1572	1750	0
2	1575	1755	0
2	1577	1760	1
2	1580	1760	1
2	1586	1765	0
2	1590	1770	0
2	1593	1775	0
2	1595	1780	1
2	1598	1780	1
2	1604	1785	0
2	1608	1790	0
2	1611	1795	0
2	1613	1800	1
2	1616	1800	1
2	1622	1805	0
2	1626	1810	0
2	1629	1815	0
2	1631	1820	1
2	1634	1820	1
2	1640	1825	0
2	1644	1830	0
2	1647	1835	0
2	1649	1840	1
2	1652	1840	1
2	1658	1845	0
2	1662	1850	0
2	1665	1855	0
2	1667	1860	1
2	1670	1860	1
2	1676	1865	0
2	1680	1870	0
2	1683	1875	0
2	1685	1880	1
2	1688	1880	1
2	1694	1885	0
2	1698	1890	0
2	1701	1895	0
2	1703	1900	1
2	1706	1900	1
2	1712	1905	0
2	1716	1910	0
2	1719	1915	0
2	1721	1920	1
2	1724	1920	1
2	1730	1925	0
2	1734	1930	0
2	1737	1935	0
2	1739	1940	1
2	1742	1940	1
2	1748	1945	0
2	1752	1950	0
2	1755	1955	0
2	1757	1960	1
2	1760	1960	1
2	1766	1965	0
2	1770	1970	0
2	1773	1975	0
2	1775	1980	1
2	1778	1980	1
2	1784	1985	0
2	1788	1990	0
2	1791	1995	0
2	1793	2000	1
2	1796	2000	1
2	1802	2005	0
2	1806	2010	0
2	1809	2015	0
2	1811	2020	1
2	1814	2020	1
2	1820	2025	0
2	1824	2030	0
2	1827	2035	0
2	1829	2040	1
2	1832	2040	1
2	1838	2045	0
2	1842	2050	0
2	1845	2055	0
2	1847	2060	1
2	1850	2060	1
2	1856	2065	0
2	1860	2070	0
2	1863	2075	0
2	1865	2080	1
2	1868	2080	1
2	1874	2085	0
2	1878	2090	0
2	1881	2095	0
2	1883	2100	1
2	1886	2100	1
2	1892	2105	0
2	1896	2110	0
2	1899	2115	0
2	1901	2120	1
2	1904	2120	1
2	1910	2125	0
2	1914	2130	0
2	1917	2135	0
2	1919	2140	1
2	1922	2140	1
2	1928	2145	0
2	1932	2150	0
2	1935	2155	0
2	1937	2160	1
2	1940	2160	1
2	1946	2165	0
2	1950	2170	0
2	1953	2175	0
2	1955	2180	1
2	1958	2180	1
2	1964	2185	0
2	1968	2190	0
2	1971	2195	0
2	1973	2200	1
2	1976	2200	1
2	1982	2205	0
2	1986	2210	0
2	1989	2215	0
2	1991	2220	1
2	1994	2220	1
2	2000	2225	0
2	2004	2230	0
2	2007	2235	0
2	2009	2240	1
2	2012	2240	1
2	2018	2245	0
2	2022	2250	0
2	2025	2255	0
2	2027	2260	1
2	2030	2260	1
2	2036	2265	0
2	2040	2270	0
2	2043	2275	0
2	2045	2280	1
2	2048	2280	1
2	2054	2285	0
2	2058	2290	0
2	2061	2295	0
2	2063	2300	1
2	2066	2300	1
2	2072	2305	0
2	2076	2310	0
2	2079	2315	0
2	2081	2320	1
2	2084	2320	1
2	2090	2325	0
2	2094	2330	0
2	2097	2335	0
2	2099	2340	1
2	2102	2340	1
2	2108	2345	0
2	2112	2350	0
2	2115	2355	0
2	2117	2360	1
2	2120	2360	1
2	2126	2365	0
2	2130	2370	0
2	2133	2375	0
2	2135	2380	1
2	2138	2380	1
2	2144	2385	0
2	2148	2390	0
2	2151	2395	0
2	2153	2400	1
2	2156	2400	1
2	2162	2405	0
2	2166	2410	0
2	2169	2415	0
2	2171	2420	1
2	2174	2420	1
2	2180	2425	0
2	2184	2430	0
2	2187	2435	0
2	2189	2440	1
2	2192	2440	1
2	2198	2445	0
2	2202	2450	0
2	2205	2455	0
2	2207	2460	1
2	2210	2460	1
2	2216	2465	0
2	2220	2470	0
2	2223	2475	0
2	2225	2480	1
2	2228	2480	1
2	2234	2485	0
2	2238	2490	0
2	2241	2495	0
2	2243	2500	1
2	2246	2500	1
2	2252	2505	0
2	2256	2510	0
2	2259	2515	0
2	2261	2520	1
2	2264	2520	1
2	2270	2525	0
2	2274	2530	0
2	2277	2535	0
2	2279	2540	1
2	2282	2540	1
2	2288	2545	0
2	2292	2550	0
2	2295	2555	0
2	2297	2560	1
2	2300	2560	1
2	2306	2565	0
2	2310	2570	0
2	2313	2575	0
2	2315	2580	1
2	2318	2580	1
2	2324	2585	0
2	2328	2590	0
2	2331	2595	0
2	2333	2600	1
2	2336	2600	1
2	2342	2605	0
2	2346	2610	0
2	2349	2615	0
2	2351	2620	1
2	2354	2620	1
2	2360	2625	0
2	2364	2630	0
2	2367	2635	0
2	2369	2640	1
2	2372	2640	1
2	2378	2645	0
2	2382	2650	0
2	2385	2655	0
2	2387	2660	1
2	2390	2660	1
2	2396	2665	0
2	2400	2670	0
2	2403	2675	0
2	2405	2680	1
2	2408	2680	1
2	2414	2685	0
2	2418	2690	0
2	2421	2695	0
2	2423	2700	1
2	2426	2700	1
2	2432	2705	0
2	2436	2710	0
2	2439	2715	0
2	2441	2720	1
2	2444	2720	1
2	2450	2725	0
2	2454	2730	0
2	2457	2735	0
2	2459	2740	1
2	2462	2740	1
2	2468	2745	0
2	2472	2750	0
2	2475	2755	0
2	2477	2760	1
2	2480	2760	1
2	2486	2765	0
2	2490	2770	0
2	2493	2775	0
2	2495	2780	1
2	2498	2780	1
2	2504	2785	0
2	2508	2790	0
2	2511	2795	0
2	2513	2800	1
2	2516	2800	1
2	2522	2805	0
2	2526	2810	0
2	2529	2815	0
2	2531	2820	1
2	2534	2820	1
2	2540	2825	0
2	2544	2830	0
2	2547	2835	0
2	2549	2840	1
2	2552	2840	1
2	2558	2845	0
2	2562	2850	0
2	2565	2855	0
2	2567	2860	1
2	2570	2860	1
2	2576	2865	0
2	2580	2870	0
2	2583	2875	0
2	2585	2880	1
2	2588	2880	1
2	2594	2885	0
2	2598	2890	0
2	2601	2895	0
2	2603	2900	1
2	2606	2900	1
2	2612	2905	0
2	2616	2910	0
2	2619	2915	0
2	2621	2920	1
2	2624	2920	1
2	2630	2925	0
2	2634	2930	0
2	2637	2935	0
2	2639	2940	1
2	2642	2940	1
2	2648	2945	0
2	2652	2950	0
2	2655	2955	0
2	2657	2960	1
2	2660	2960	1
2	2666	2965	0
2	2670	2970	0
2	2673	2975	0
2	2675	2980	1
2	2678	2980	1
2	2684	2985	0
2	2688	2990	0
2	2691	2995	0
2	2693	3000	1
2	2696	3000	1
2	2702	3005	0
2	2706	3010	0
2	2709	3015	0
2	2711	3020	1
2	2714	3020	1
2	2720	3025	0
2	2724	3030	0
2	2727	3035	0
2	2729	3040	1
2	2732	3040	1
2	2738	3045	0
2	2742	3050	0
2	2745	3055	0
2	2747	3060	1
2	2750	3060	1
2	2756	3065	0
2	2760	3070	0
2	2763	3075	0
2	2765	3080	1
2	2768	3080	1
2	2774	3085	0
2	2778	3090	0
2	2781	3095	0
2	2783	3100	1
2	2786	3100	1
2	2792	3105	0
2	2796	3110	0
2	2799	3115	0
2	2801	3120	1
2	2804	3120	1
2	2810	3125	0
2	2814	3130	0
2	2817	3135	0
2	2819	3140	1
2	2822	3140	1
2	2828	3145	0
2	2832	3150	0
2	2835	3155	0
2	2837	3160	1
2	2840	3160	1
2	2846	3165	0
2	2850	3170	0
2	2853	3175	0
2	2855	3180	1
2	2858	3180	1
2	2864	3185	0
2	2868	3190	0
2	2871	3195	0
2	2873	3200	1
2	2876	3200	1
2	2882	3205	0
2	2886	3210	0
2	2889	3215	0
2	2891	3220	1
2	2894	3220	1
2	2900	3225	0
2	2904	3230	0
2	2907	3235	0
2	2909	3240	1
2	2912	3240	1
2	2918	3245	0
2	2922	3250	0
2	2925	3255	0
2	2927	3260	1
2	2930	3260	1
2	2936	3265	0
2	2940	3270	0
2	2943	3275	0
2	2945	3280	1
2	2948	3280	1
2	2954	3285	0
2	2958	3290	0
2	2961	3295	0
2	2963	3300	1
2	2966	3300	1
2	2972	3305	0
2	2976	3310	0
2	2979	3315	0
2	2981	3320	1
2	2984	3320	1
2	2990	3325	0
2	2994	3330	0
2	2997	3335	0
2	2999	3340	1
2	3002	3340	1
2	3008	3345	0
2	3012	3350	0
2	3015	3355	0
2	3017	3360	1
2	3020	3360	1
2	3026	3365	0
2	3030	3370	0
2	3033	3375	0
2	3035	3380	1
2	3038	3380	1
2	3044	3385	0
2	3048	3390	0
2	3051	3395	0
2	3053	3400	1
2	3056	3400	1
2	3062	3405	0
2	3066	3410	0
2	3069	3415	0
2	3071	3420	1
2	3074	3420	1
2	3080	3425	0
2	3084	3430	0
2	3087	3435	0
2	3089	3440	1
2	3092	3440	1
2	3098	3445	0
2	3102	3450	0
2	3105	3455	0
2	3107	3460	1
2	3110	3460	1
2	3116	3465	0
2	3120	3470	0
2	3123	3475	0
2	3125	3480	1
2	3128	3480	1
2	3134	3485	0
2	3138	3490	0
2	3141	3495	0
2	3143	3500	1
2	3146	3500	1
2	3152	3505	0
2	3156	3510	0
2	3159	3515	0
2	3161	3520	1
2	3164	3520	1
2	3170	3525	0
2	3174	3530	0
2	3177	3535	0
2	3179	3540	1
2	3182	3540	1
2	3188	3545	0
2	3192	3550	0
2	3195	3555	0
2	3197	3560	1
2	3200	3560	1
2	3206	3565	0
2	3210	3570	0
2	3213	3575	0
2	3215	3580	1
2	3218	3580	1
2	3224	3585	0
2	3228	3590	0
2	3231	3595	0
2	3233	3600	1
2	3236	3600	1
3	10	20	1
3	28	40	1
3	46	60	1
3	64	80	1
3	82	100	1
3	100	120	1
3	118	140	1
3	136	160	1
3	154	180	1
3	172	200	1
3	190	220	1
3	208	240	1
3	226	260	1
3	244	280	1
3	262	300	1
3	280	320	1
3	298	340	1
3	316	360	1
3	334	380	1
3	352	400	1
3	370	420	1
3	388	440	1
3	406	460	1
3	424	480	1
3	442	500	1
3	460	520	1
3	478	540	1
3	496	560	1
3	514	580	1
3	532	600	1
3	550	620	1
3	568	640	1
3	586	660	1
3	604	680	1
3	622	700	1
3	640	720	1
3	658	740	1
3	676	760	1
3	694	780	1
3	712	800	1
3	730	820	1
3	748	840	1
3	766	860	1
3	784	880	1
3	802	900	1
3	820	920	1
3	838	940	1
3	856	960	1
3	874	980	1
3	892	1000	1
3	910	1020	1
3	928	1040	1
3	946	1060	1
3	964	1080	1
3	982	1100	1
3	1000	1120	1
3	1018	1140	1
3	1036	1160	1
3	1054	1180	1
3	1072	1200	1
3	1090	1220	1
3	1108	1240	1
3	1126	1260	1
3	1144	1280	1
3	1162	1300	1
3	1180	1320	1
3	1198	1340	1
3	1216	1360	1
3	1234	1380	1
3	1252	1400	1
3	1270	1420	1
3	1288	1440	1
3	1306	1460	1
3	1324	1480	1
3	1342	1500	1
3	1360	1520	1
3	1378	1540	1
3	1396	1560	1
3	1414	1580	1
3	1432	1600	1
3	1450	1620	1
3	1468	1640	1
3	1486	1660	1
3	1504	1680	1
3	1522	1700	1
3	1540	1720	1
3	1558	1740	1
3	1576	1760	1
3	1594	1780	1
3	1612	1800	1
3	1630	1820	1
3	1648	1840	1
3	1666	1860	1
3	1684	1880	1
3	1702	1900	1
3	1720	1920	1
3	1738	1940	1
3	1756	1960	1
3	1774	1980	1
3	1792	2000	1
3	1810	2020	1
3	1828	2040	1
3	1846	2060	1
3	1864	2080	1
3	1882	2100	1
3	1900	2120	1
3	1918	2140	1
3	1936	2160	1
3	1954	2180	1
3	1972	2200	1
3	1990	2220	1
3	2008	2240	1
3	2026	2260	1
3	2044	2280	1
3	2062	2300	1
3	2080	2320	1
3	2098	2340	1
3	2116	2360	1
3	2134	2380	1
3	2152	2400	1
3	2170	2420	1
3	2188	2440	1
3	2206	2460	1
3	2224	2480	1
3	2242	2500	1
3	2260	2520	1
3	2278	2540	1
3	2296	2560	1
3	2314	2580	1
3	2332	2600	1
3	2350	2620	1
3	2368	2640	1
3	2386	2660	1
3	2404	2680	1
3	2422	2700	1
3	2440	2720	1
3	2458	2740	1
3	2476	2760	1
3	2494	2780	1
3	2512	2800	1
3	2530	2820	1
3	2548	2840	1
3	2566	2860	1
3	2584	2880	1
3	2602	2900	1
3	2620	2920	1
3	2638	2940	1
3	2656	2960	1
3	2674	2980	1
3	2692	3000	1
3	2710	3020	1
3	2728	3040	1
3	2746	3060	1
3	2764	3080	1
3	2782	3100	1
3	2800	3120	1
3	2818	3140	1
3	2836	3160	1
3	2854	3180	1
3	2872	3200	1
3	2890	3220	1
3	2908	3240	1
3	2926	3260	1
3	2944	3280	1
3	2962	3300	1
3	2980	3320	1
3	2998	3340	1
3	3016	3360	1
3	3034	3380	1
3	3052	3400	1
3	3070	3420	1
3	3088	3440	1
3	3106	3460	1
3	3124	3480	1
3	3142	3500	1
3	3160	3520	1
3	3178	3540	1
3	3196	3560	1
3	3214	3580	1
3	3232	3600	1
4	11	20	1
4	29	40	1
4	47	60	1
4	65	80	1
4	83	100	1
4	101	120	1
4	119	140	1
4	137	160	1
4	155	180	1
4	173	200	1
4	191	220	1
4	209	240	1
4	227	260	1
4	245	280	1
4	263	300	1
4	281	320	1
4	299	340	1
4	317	360	1
4	335	380	1
4	353	400	1
4	371	420	1
4	389	440	1
4	407	460	1
4	425	480	1
4	443	500	1
4	461	520	1
4	479	540	1
4	497	560	1
4	515	580	1
4	533	600	1
4	551	620	1
4	569	640	1
4	587	660	1
4	605	680	1
4	623	700	1
4	641	720	1
4	659	740	1
4	677	760	1
4	695	780	1
4	713	800	1
4	731	820	1
4	749	840	1
4	767	860	1
4	785	880	1
4	803	900	1
4	821	920	1
4	839	940	1
4	857	960	1
4	875	980	1
4	893	1000	1
4	911	1020	1
4	929	1040	1
4	947	1060	1
4	965	1080	1
4	983	1100	1
4	1001	1120	1
4	1019	1140	1
4	1037	1160	1
4	1055	1180	1
4	1073	1200	1
4	1091	1220	1
4	1109	1240	1
4	1127	1260	1
4	1145	1280	1
4	1163	1300	1
4	1181	1320	1
4	1199	1340	1
4	1217	1360	1
4	1235	1380	1
4	1253	1400	1
4	1271	1420	1
4	1289	1440	1
4	1307	1460	1
4	1325	1480	1
4	1343	1500	1
4	1361	1520	1
4	1379	1540	1
4	1397	1560	1
4	1415	1580	1
4	1433	1600	1
4	1451	1620	1
4	1469	1640	1
4	1487	1660	1
4	1505	1680	1
4	1523	1700	1
4	1541	1720	1
4	1559	1740	1
4	1577	1760	1
4	1595	1780	1
4	1613	1800	1
4	1631	1820	1
4	1649	1840	1
4	1667	1860	1
4	1685	1880	1
4	1703	1900	1
4	1721	1920	1
4	1739	1940	1
4	1757	1960	1
4	1775	1980	1
4	1793	2000	1
4	1811	2020	1
4	1829	2040	1
4	1847	2060	1
4	1865	2080	1
4	1883	2100	1
4	1901	2120	1
4	1919	2140	1
4	1937	2160	1
4	1955	2180	1
4	1973	2200	1
4	1991	2220	1
4	2009	2240	1
4	2027	2260	1
4	2045	2280	1
4	2063	2300	1
4	2081	2320	1
4	2099	2340	1
4	2117	2360	1
4	2135	2380	1
4	2153	2400	1
4	2171	2420	1
4	2189	2440	1
4	2207	2460	1
4	2225	2480	1
4	2243	2500	1
4	2261	2520	1
4	2279	2540	1
4	2297	2560	1
4	2315	2580	1
4	2333	2600	1
4	2351	2620	1
4	2369	2640	1
4	2387	2660	1
4	2405	2680	1
4	2423	2700	1
4	2441	2720	1
4	2459	2740	1
4	2477	2760	1
4	2495	2780	1
4	2513	2800	1
4	2531	2820	1
4	2549	2840	1
4	2567	2860	1
4	2585	2880	1
4	2603	2900	1
4	2621	2920	1
4	2639	2940	1
4	2657	2960	1
4	2675	2980	1
4	2693	3000	1
4	2711	3020	1
4	2729	3040	1
4	2747	3060	1
4	2765	3080	1
4	2783	3100	1
4	2801	3120	1
4	2819	3140	1
4	2837	3160	1
4	2855	3180	1
4	2873	3200	1
4	2891	3220	1
4	2909	3240	1
4	2927	3260	1
4	2945	3280	1
4	2963	3300	1
4	2981	3320	1
4	2999	3340	1
4	3017	3360	1
4	3035	3380	1
4	3053	3400	1
4	3071	3420	1
4	3089	3440	1
4	3107	3460	1
4	3125	3480	1
4	3143	3500	1
4	3161	3520	1
4	3179	3540	1
4	3197	3560	1
4	3215	3580	1
4	3233	3600	1
5	17	25	5
5	17	25	5
5	35	45	5
5	35	45	5
5	53	65	5
5	53	65	5
5	71	85	5
5	71	85	5
5	89	105	5
5	89	105	5
5	107	125	5
5	107	125	5
5	125	145	5
5	125	145	5
5	143	165	5
5	143	165	5
5	161	185	5
5	161	185	5
5	179	205	5
5	179	205	5
5	197	225	5
5	197	225	5
5	215	245	5
5	215	245	5
5	233	265	5
5	233	265	5
5	251	285	5
5	251	285	5
5	269	305	5
5	269	305	5
5	287	325	5
5	287	325	5
5	305	345	5
5	305	345	5
5	323	365	5
5	323	365	5
5	341	385	5
5	341	385	5
5	359	405	5
5	359	405	5
5	377	425	5
5	377	425	5
5	395	445	5
5	395	445	5
5	413	465	5
5	413	465	5
5	431	485	5
5	431	485	5
5	449	505	5
5	449	505	5
5	467	525	5
5	467	525	5
5	485	545	5
5	485	545	5
5	503	565	5
5	503	565	5
5	521	585	5
5	521	585	5
5	539	605	5
5	539	605	5
5	557	625	5
5	557	625	5
5	575	645	5
5	575	645	5
5	593	665	5
5	593	665	5
5	611	685	5
5	611	685	5
5	629	705	5
5	629	705	5
5	647	725	5
5	647	725	5
5	665	745	5
5	665	745	5
5	683	765	5
5	683	765	5
5	701	785	5
5	701	785	5
5	719	805	5
5	719	805	5
5	737	825	5
5	737	825	5
5	755	845	5
5	755	845	5
5	773	865	5
5	773	865	5
5	791	885	5
5	791	885	5
5	809	905	5
5	809	905	5
5	827	925	5
5	827	925	5
5	845	945	5
5	845	945	5
5	863	965	5
5	863	965	5
5	881	985	5
5	881	985	5
5	899	1005	5
5	899	1005	5
5	917	1025	5
5	917	1025	5
5	935	1045	5
5	935	1045	5
5	953	1065	5
5	953	1065	5
5	971	1085	5
5	971	1085	5
5	989	1105	5
5	989	1105	5
5	1007	1125	5
5	1007	1125	5
5	1025	1145	5
5	1025	1145	5
5	1043	1165	5
5	1043	1165	5
5	1061	1185	5
5	1061	1185	5
5	1079	1205	5
5	1079	1205	5
5	1097	1225	5
5	1097	1225	5
5	1115	1245	5
5	1115	1245	5
5	1133	1265	5
5	1133	1265	5
5	1151	1285	5
5	1151	1285	5
5	1169	1305	5
5	1169	1305	5
5	1187	1325	5
5	1187	1325	5
5	1205	1345	5
5	1205	1345	5
5	1223	1365	5
5	1223	1365	5
5	1241	1385	5
5	1241	1385	5
5	1259	1405	5
5	1259	1405	5
5	1277	1425	5
5	1277	1425	5
5	1295	1445	5
5	1295	1445	5
5	1313	1465	5
5	1313	1465	5
5	1331	1485	5
5	1331	1485	5
5	1349	1505	5
5	1349	1505	5
5	1367	1525	5
5	1367	1525	5
5	1385	1545	5
5	1385	1545	5
5	1403	1565	5
5	1403	1565	5
5	1421	1585	5
5	1421	1585	5
5	1439	1605	5
5	1439	1605	5
5	1457	1625	5
5	1457	1625	5
5	1475	1645	5
5	1475	1645	5
5	1493	1665	5
5	1493	1665	5
5	1511	1685	5
5	1511	1685	5
5	1529	1705	5
5	1529	1705	5
5	1547	1725	5
5	1547	1725	5
5	1565	1745	5
5	1565	1745	5
5	1583	1765	5
5	1583	1765	5
5	1601	1785	5
5	1601	1785	5
5	1619	1805	5
5	1619	1805	5
5	1637	1825	5
5	1637	1825	5
5	1655	1845	5
5	1655	1845	5
5	1673	1865	5
5	1673	1865	5
5	1691	1885	5
5	1691	1885	5
5	1709	1905	5
5	1709	1905	5
5	1727	1925	5
5	1727	1925	5
5	1745	1945	5
5	1745	1945	5
5	1763	1965	5
5	1763	1965	5
5	1781	1985	5
5	1781	1985	5
5	1799	2005	5
5	1799	2005	5
5	1817	2025	5
5	1817	2025	5
5	1835	2045	5
5	1835	2045	5
5	1853	2065	5
5	1853	2065	5
5	1871	2085	5
5	1871	2085	5
5	1889	2105	5
5	1889	2105	5
5	1907	2125	5
5	1907	2125	5
5	1925	2145	5
5	1925	2145	5
5	1943	2165	5
5	1943	2165	5
5	1961	2185	5
5	1961	2185	5
5	1979	2205	5
5	1979	2205	5
5	1997	2225	5
5	1997	2225	5
5	2015	2245	5
5	2015	2245	5
5	2033	2265	5
5	2033	2265	5
5	2051	2285	5
5	2051	2285	5
5	2069	2305	5
5	2069	2305	5
5	2087	2325	5
5	2087	2325	5
5	2105	2345	5
5	2105	2345	5
5	2123	2365	5
5	2123	2365	5
5	2141	2385	5
5	2141	2385	5
5	2159	2405	5
5	2159	2405	5
5	2177	2425	5
5	2177	2425	5
5	2195	2445	5
5	2195	2445	5
5	2213	2465	5
5	2213	2465	5
5	2231	2485	5
5	2231	2485	5
5	2249	2505	5
5	2249	2505	5
5	2267	2525	5
5	2267	2525	5
5	2285	2545	5
5	2285	2545	5
5	2303	2565	5
5	2303	2565	5
5	2321	2585	5
5	2321	2585	5
5	2339	2605	5
5	2339	2605	5
5	2357	2625	5
5	2357	2625	5
5	2375	2645	5
5	2375	2645	5
5	2393	2665	5
5	2393	2665	5
5	2411	2685	5
5	2411	2685	5
5	2429	2705	5
5	2429	2705	5
5	2447	2725	5
5	2447	2725	5
5	2465	2745	5
5	2465	2745	5
5	2483	2765	5
5	2483	2765	5
5	2501	2785	5
5	2501	2785	5
5	2519	2805	5
5	2519	2805	5
5	2537	2825	5
5	2537	2825	5
5	2555	2845	5
5	2555	2845	5
5	2573	2865	5
5	2573	2865	5
5	2591	2885	5
5	2591	2885	5
5	2609	2905	5
5	2609	2905	5
5	2627	2925	5
5	2627	2925	5
5	2645	2945	5
5	2645	2945	5
5	2663	2965	5
5	2663	2965	5
5	2681	2985	5
5	2681	2985	5
5	2699	3005	5
5	2699	3005	5
5	2717	3025	5
5	2717	3025	5
5	2735	3045	5
5	2735	3045	5
5	2753	3065	5
5	2753	3065	5
5	2771	3085	5
5	2771	3085	5
5	2789	3105	5
5	2789	3105	5
5	2807	3125	5
5	2807	3125	5
5	2825	3145	5
5	2825	3145	5
5	2843	3165	5
5	2843	3165	5
5	2861	3185	5
5	2861	3185	5
5	2879	3205	5
5	2879	3205	5
5	2897	3225	5
5	2897	3225	5
5	2915	3245	5
5	2915	3245	5
5	2933	3265	5
5	2933	3265	5
5	2951	3285	5
5	2951	3285	5
5	2969	3305	5
5	2969	3305	5
5	2987	3325	5
5	2987	3325	5
5	3005	3345	5
5	3005	3345	5
5	3023	3365	5
5	3023	3365	5
5	3041	3385	5
5	3041	3385	5
5	3059	3405	5
5	3059	3405	5
5	3077	3425	5
5	3077	3425	5
5	3095	3445	5
5	3095	3445	5
5	3113	3465	5
5	3113	3465	5
5	3131	3485	5
5	3131	3485	5
5	3149	3505	5
5	3149	3505	5
5	3167	3525	5
5	3167	3525	5
5	3185	3545	5
5	3185	3545	5
5	3203	3565	5
5	3203	3565	5
5	3221	3585	5
5	3221	3585	5
6	19	25	1
6	37	45	1
6	55	65	1
6	73	85	1
6	91	105	1
6	109	125	1
6	127	145	1
6	145	165	1
6	163	185	1
6	181	205	1
6	199	225	1
6	217	245	1
6	235	265	1
6	253	285	1
6	271	305	1
6	289	325	1
6	307	345	1
6	325	365	1
6	343	385	1
6	361	405	1
6	379	425	1
6	397	445	1
6	415	465	1
6	433	485	1
6	451	505	1
6	469	525	1
6	487	545	1
6	505	565	1
6	523	585	1
6	541	605	1
6	559	625	1
6	577	645	1
6	595	665	1
6	613	685	1
6	631	705	1
6	649	725	1
6	667	745	1
6	685	765	1
6	703	785	1
6	721	805	1
6	739	825	1
6	757	845	1
6	775	865	1
6	793	885	1
6	811	905	1
6	829	925	1
6	847	945	1
6	865	965	1
6	883	985	1
6	901	1005	1
6	919	1025	1
6	937	1045	1
6	955	1065	1
6	973	1085	1
6	991	1105	1
6	1009	1125	1
6	1027	1145	1
6	1045	1165	1
6	1063	1185	1
6	1081	1205	1
6	1099	1225	1
6	1117	1245	1
6	1135	1265	1
6	1153	1285	1
6	1171	1305	1
6	1189	1325	1
6	1207	1345	1
6	1225	1365	1
6	1243	1385	1
6	1261	1405	1
6	1279	1425	1
6	1297	1445	1
6	1315	1465	1
6	1333	1485	1
6	1351	1505	1
6	1369	1525	1
6	1387	1545	1
6	1405	1565	1
6	1423	1585	1
6	1441	1605	1
6	1459	1625	1
6	1477	1645	1
6	1495	1665	1
6	1513	1685	1
6	1531	1705	1
6	1549	1725	1
6	1567	1745	1
6	1585	1765	1
6	1603	1785	1
6	1621	1805	1
6	1639	1825	1
6	1657	1845	1
6	1675	1865	1
6	1693	1885	1
6	1711	1905	1
6	1729	1925	1
6	1747	1945	1
6	1765	1965	1
6	1783	1985	1
6	1801	2005	1
6	1819	2025	1
6	1837	2045	1
6	1855	2065	1
6	1873	2085	1
6	1891	2105	1
6	1909	2125	1
6	1927	2145	1
6	1945	2165	1
6	1963	2185	1
6	1981	2205	1
6	1999	2225	1
6	2017	2245	1
6	2035	2265	1
6	2053	2285	1
6	2071	2305	1
6	2089	2325	1
6	2107	2345	1
6	2125	2365	1
6	2143	2385	1
6	2161	2405	1
6	2179	2425	1
6	2197	2445	1
6	2215	2465	1
6	2233	2485	1
6	2251	2505	1
6	2269	2525	1
6	2287	2545	1
6	2305	2565	1
6	2323	2585	1
6	2341	2605	1
6	2359	2625	1
6	2377	2645	1
6	2395	2665	1
6	2413	2685	1
6	2431	2705	1
6	2449	2725	1
6	2467	2745	1
6	2485	2765	1
6	2503	2785	1
6	2521	2805	1
6	2539	2825	1
6	2557	2845	1
6	2575	2865	1
6	2593	2885	1
6	2611	2905	1
6	2629	2925	1
6	2647	2945	1
6	2665	2965	1
6	2683	2985	1
6	2701	3005	1
6	2719	3025	1
6	2737	3045	1
6	2755	3065	1
6	2773	3085	1
6	2791	3105	1
6	2809	3125	1
6	2827	3145	1
6	2845	3165	1
6	2863	3185	1
6	2881	3205	1
6	2899	3225	1
6	2917	3245	1
6	2935	3265	1
6	2953	3285	1
6	2971	3305	1
6	2989	3325	1
6	3007	3345	1
6	3025	3365	1
6	3043	3385	1
6	3061	3405	1
6	3079	3425	1
6	3097	3445	1
6	3115	3465	1
6	3133	3485	1
6	3151	3505	1
6	3169	3525	1
6	3187	3545	1
6	3205	3565	1
6	3223	3585	1
7	19	25	5
7	37	45	5
7	55	65	5
7	73	85	5
7	91	105	5
7	109	125	5
7	127	145	5
7	145	165	5
7	163	185	5
7	181	205	5
7	199	225	5
7	217	245	5
7	235	265	5
7	253	285	5
7	271	305	5
7	289	325	5
7	307	345	5
7	325	365	5
7	343	385	5
7	361	405	5
7	379	425	5
7	397	445	5
7	415	465	5
7	433	485	5
7	451	505	5
7	469	525	5
7	487	545	5
7	505	565	5
7	523	585	5
7	541	605	5
7	559	625	5
7	577	645	5
7	595	665	5
7	613	685	5
7	631	705	5
7	649	725	5
7	667	745	5
7	685	765	5
7	703	785	5
7	721	805	5
7	739	825	5
7	757	845	5
7	775	865	5
7	793	885	5
7	811	905	5
7	829	925	5
7	847	945	5
7	865	965	5
7	883	985	5
7	901	1005	5
7	919	1025	5
7	937	1045	5
7	955	1065	5
7	973	1085	5
7	991	1105	5
7	1009	1125	5
7	1027	1145	5
7	1045	1165	5
7	1063	1185	5
7	1081	1205	5
7	1099	1225	5
7	1117	1245	5
7	1135	1265	5
7	1153	1285	5
7	1171	1305	5
7	1189	1325	5
7	1207	1345	5
7	1225	1365	5
7	1243	1385	5
7	1261	1405	5
7	1279	1425	5
7	1297	1445	5
7	1315	1465	5
7	1333	1485	5
7	1351	1505	5
7	1369	1525	5
7	1387	1545	5
7	1405	1565	5
7	1423	1585	5
7	1441	1605	5
7	1459	1625	5
7	1477	1645	5
7	1495	1665	5
7	1513	1685	5
7	1531	1705	5
7	1549	1725	5
7	1567	1745	5
7	1585	1765	5
7	1603	1785	5
7	1621	1805	5
7	1639	1825	5
7	1657	1845	5
7	1675	1865	5
7	1693	1885	5
7	1711	1905	5
7	1729	1925	5
7	1747	1945	5
7	1765	1965	5
7	1783	1985	5
7	1801	2005	5
7	1819	2025	5
7	1837	2045	5
7	1855	2065	5
7	1873	2085	5
7	1891	2105	5
7	1909	2125	5
7	1927	2145	5
7	1945	2165	5
7	1963	2185	5
7	1981	2205	5
7	1999	2225	5
7	2017	2245	5
7	2035	2265	5
7	2053	2285	5
7	2071	2305	5
7	2089	2325	5
7	2107	2345	5
7	2125	2365	5
7	2143	2385	5
7	2161	2405	5
7	2179	2425	5
7	2197	2445	5
7	2215	2465	5
7	2233	2485	5
7	2251	2505	5
7	2269	2525	5
7	2287	2545	5
7	2305	2565	5
7	2323	2585	5
7	2341	2605	5
7	2359	2625	5
7	2377	2645	5
7	2395	2665	5
7	2413	2685	5
7	2431	2705	5
7	2449	2725	5
7	2467	2745	5
7	2485	2765	5
7	2503	2785	5
7	2521	2805	5
7	2539	2825	5
7	2557	2845	5
7	2575	2865	5
7	2593	2885	5
7	2611	2905	5
7	2629	2925	5
7	2647	2945	5
7	2665	2965	5
7	2683	2985	5
7	2701	3005	5
7	2719	3025	5
7	2737	3045	5
7	2755	3065	5
7	2773	3085	5
7	2791	3105	5
7	2809	3125	5
7	2827	3145	5
7	2845	3165	5
7	2863	3185	5
7	2881	3205	5
7	2899	3225	5
7	2917	3245	5
7	2935	3265	5
7	2953	3285	5
7	2971	3305	5
7	2989	3325	5
7	3007	3345	5
7	3025	3365	5
7	3043	3385	5
7	3061	3405	5
7	3079	3425	5
7	3097	3445	5
7	3115	3465	5
7	3133	3485	5
7	3151	3505	5
7	3169	3525	5
7	3187	3545	5
7	3205	3565	5
7	3223	3585	5
8	19	25	0
8	37	45	0
8	55	65	0
8	73	85	0
8	91	105	0
8	109	125	0
8	127	145	0
8	145	165	0
8	163	185	0
8	181	205	0
8	199	225	0
8	217	245	0
8	235	265	0
8	253	285	0
8	271	305	0
8	289	325	0
8	307	345	0
8	325	365	0
8	343	385	0
8	361	405	0
8	379	425	0
8	397	445	0
8	415	465	0
8	433	485	0
8	451	505	0
8	469	525	0
8	487	545	0
8	505	565	0
8	523	585	0
8	541	605	0
8	559	625	0
8	577	645	0
8	595	665	0
8	613	685	0
8	631	705	0
8	649	725	0
8	667	745	0
8	685	765	0
8	703	785	0
8	721	805	0
8	739	825	0
8	757	845	0
8	775	865	0
8	793	885	0
8	811	905	0
8	829	925	0
8	847	945	0
8	865	965	0
8	883	985	0
8	901	1005	0
8	919	1025	0
8	937	1045	0
8	955	1065	0
8	973	1085	0
8	991	1105	0
8	1009	1125	0
8	1027	1145	0
8	1045	1165	0
8	1063	1185	0
8	1081	1205	0
8	1099	1225	0
8	1117	1245	0
8	1135	1265	0
8	1153	1285	0
8	1171	1305	0
8	1189	1325	0
8	1207	1345	0
8	1225	1365	0
8	1243	1385	0
8	1261	1405	0
8	1279	1425	0
8	1297	1445	0
8	1315	1465	0
8	1333	1485	0
8	1351	1505	0
8	1369	1525	0
8	1387	1545	0
8	1405	1565	0
8	1423	1585	0
8	1441	1605	0
8	1459	1625	0
8	1477	1645	0
8	1495	1665	0
8	1513	1685	0
8	1531	1705	0
8	1549	1725	0
8	1567	1745	0
8	1585	1765	0
8	1603	1785	0
8	1621	1805	0
8	1639	1825	0
8	1657	1845	0
8	1675	1865	0
8	1693	1885	0
8	1711	1905	0
8	1729	1925	0
8	1747	1945	0
8	1765	1965	0
8	1783	1985	0
8	1801	2005	0
8	1819	2025	0
8	1837	2045	0
8	1855	2065	0
8	1873	2085	0
8	1891	2105	0
8	1909	2125	0
8	1927	2145	0
8	1945	2165	0
8	1963	2185	0
8	1981	2205	0
8	1999	2225	0
8	2017	2245	0
8	2035	2265	0
8	2053	2285	0
8	2071	2305	0
8	2089	2325	0
8	2107	2345	0
8	2125	2365	0
8	2143	2385	0
8	2161	2405	0
8	2179	2425	0
8	2197	2445	0
8	2215	2465	0
8	2233	2485	0
8	2251	2505	0
8	2269	2525	0
8	2287	2545	0
8	2305	2565	0
8	2323	2585	0
8	2341	2605	0
8	2359	2625	0
8	2377	2645	0
8	2395	2665	0
8	2413	2685	0
8	2431	2705	0
8	2449	2725	0
8	2467	2745	0
8	2485	2765	0
8	2503	2785	0
8	2521	2805	0
8	2539	2825	0
8	2557	2845	0
8	2575	2865	0
8	2593	2885	0
8	2611	2905	0
8	2629	2925	0
8	2647	2945	0
8	2665	2965	0
8	2683	2985	0
8	2701	3005	0
8	2719	3025	0
8	2737	3045	0
8	2755	3065	0
8	2773	3085	0
8	2791	3105	0
8	2809	3125	0
8	2827	3145	0
8	2845	3165	0
8	2863	3185	0
8	2881	3205	0
8	2899	3225	0
8	2917	3245	0
8	2935	3265	0
8	2953	3285	0
8	2971	3305	0
8	2989	3325	0
8	3007	3345	0
8	3025	3365	0
8	3043	3385	0
8	3061	3405	0
8	3079	3425	0
8	3097	3445	0
8	3115	3465	0
8	3133	3485	0
8	3151	3505	0
8	3169	3525	0
8	3187	3545	0
8	3205	3565	0
8	3223	3585	0
9	21	25	1
9	39	45	1
9	57	65	1
9	75	85	1
9	93	105	1
9	111	125	1
9	129	145	1
9	147	165	1
9	165	185	1
9	183	205	1
9	201	225	1
9	219	245	1
9	237	265	1
9	255	285	1
9	273	305	1
9	291	325	1
9	309	345	1
9	327	365	1
9	345	385	1
9	363	405	1
9	381	425	1
9	399	445	1
9	417	465	1
9	435	485	1
9	453	505	1
9	471	525	1
9	489	545	1
9	507	565	1
9	525	585	1
9	543	605	1
9	561	625	1
9	579	645	1
9	597	665	1
9	615	685	1
9	633	705	1
9	651	725	1
9	669	745	1
9	687	765	1
9	705	785	1
9	723	805	1
9	741	825	1
9	759	845	1
9	777	865	1
9	795	885	1
9	813	905	1
9	831	925	1
9	849	945	1
9	867	965	1
9	885	985	1
9	903	1005	1
9	921	1025	1
9	939	1045	1
9	957	1065	1
9	975	1085	1
9	993	1105	1
9	1011	1125	1
9	1029	1145	1
9	1047	1165	1
9	1065	1185	1
9	1083	1205	1
9	1101	1225	1
9	1119	1245	1
9	1137	1265	1
9	1155	1285	1
9	1173	1305	1
9	1191	1325	1
9	1209	1345	1
9	1227	1365	1
9	1245	1385	1
9	1263	1405	1
9	1281	1425	1
9	1299	1445	1
9	1317	1465	1
9	1335	1485	1
9	1353	1505	1
9	1371	1525	1
9	1389	1545	1
9	1407	1565	1
9	1425	1585	1
9	1443	1605	1
9	1461	1625	1
9	1479	1645	1
9	1497	1665	1
9	1515	1685	1
9	1533	1705	1
9	1551	1725	1
9	1569	1745	1
9	1587	1765	1
9	1605	1785	1
9	1623	1805	1
9	1641	1825	1
9	1659	1845	1
9	1677	1865	1
9	1695	1885	1
9	1713	1905	1
9	1731	1925	1
9	1749	1945	1
9	1767	1965	1
9	1785	1985	1
9	1803	2005	1
9	1821	2025	1
9	1839	2045	1
9	1857	2065	1
9	1875	2085	1
9	1893	2105	1
9	1911	2125	1
9	1929	2145	1
9	1947	2165	1
9	1965	2185	1
9	1983	2205	1
9	2001	2225	1
9	2019	2245	1
9	2037	2265	1
9	2055	2285	1
9	2073	2305	1
9	2091	2325	1
9	2109	2345	1
9	2127	2365	1
9	2145	2385	1
9	2163	2405	1
9	2181	2425	1
9	2199	2445	1
9	2217	2465	1
9	2235	2485	1
9	2253	2505	1
9	2271	2525	1
9	2289	2545	1
9	2307	2565	1
9	2325	2585	1
9	2343	2605	1
9	2361	2625	1
9	2379	2645	1
9	2397	2665	1
9	2415	2685	1
9	2433	2705	1
9	2451	2725	1
9	2469	2745	1
9	2487	2765	1
9	2505	2785	1
9	2523	2805	1
9	2541	2825	1
9	2559	2845	1
9	2577	2865	1
9	2595	2885	1
9	2613	2905	1
9	2631	2925	1
9	2649	2945	1
9	2667	2965	1
9	2685	2985	1
9	2703	3005	1
9	2721	3025	1
9	2739	3045	1
9	2757	3065	1
9	2775	3085	1
9	2793	3105	1
9	2811	3125	1
9	2829	3145	1
9	2847	3165	1
9	2865	3185	1
9	2883	3205	1
9	2901	3225	1
9	2919	3245	1
9	2937	3265	1
9	2955	3285	1
9	2973	3305	1
9	2991	3325	1
9	3009	3345	1
9	3027	3365	1
9	3045	3385	1
9	3063	3405	1
9	3081	3425	1
9	3099	3445	1
9	3117	3465	1
9	3135	3485	1
9	3153	3505	1
9	3171	3525	1
9	3189	3545	1
9	3207	3565	1
9	3225	3585	1
10	21	25	5
10	39	45	5
10	57	65	5
10	75	85	5
10	93	105	5
10	111	125	5
10	129	145	5
10	147	165	5
10	165	185	5
10	183	205	5
10	201	225	5
10	219	245	5
10	237	265	5
10	255	285	5
10	273	305	5
10	291	325	5
10	309	345	5
10	327	365	5
10	345	385	5
10	363	405	5
10	381	425	5
10	399	445	5
10	417	465	5
10	435	485	5
10	453	505	5
10	471	525	5
10	489	545	5
10	507	565	5
10	525	585	5
10	543	605	5
10	561	625	5
10	579	645	5
10	597	665	5
10	615	685	5
10	633	705	5
10	651	725	5
10	669	745	5
10	687	765	5
10	705	785	5
10	723	805	5
10	741	825	5
10	759	845	5
10	777	865	5
10	795	885	5
10	813	905	5
10	831	925	5
10	849	945	5
10	867	965	5
10	885	985	5
10	903	1005	5
10	921	1025	5
10	939	1045	5
10	957	1065	5
10	975	1085	5
10	993	1105	5
10	1011	1125	5
10	1029	1145	5
10	1047	1165	5
10	1065	1185	5
10	1083	1205	5
10	1101	1225	5
10	1119	1245	5
10	1137	1265	5
10	1155	1285	5
10	1173	1305	5
10	1191	1325	5
10	1209	1345	5
10	1227	1365	5
10	1245	1385	5
10	1263	1405	5
10	1281	1425	5
10	1299	1445	5
10	1317	1465	5
10	1335	1485	5
10	1353	1505	5
10	1371	1525	5
10	1389	1545	5
10	1407	1565	5
10	1425	1585	5
10	1443	1605	5
10	1461	1625	5
10	1479	1645	5
10	1497	1665	5
10	1515	1685	5
10	1533	1705	5
10	1551	1725	5
10	1569	1745	5
10	1587	1765	5
10	1605	1785	5
10	1623	1805	5
10	1641	1825	5
10	1659	1845	5
10	1677	1865	5
10	1695	1885	5
10	1713	1905	5
10	1731	1925	5
10	1749	1945	5
10	1767	1965	5
10	1785	1985	5
10	1803	2005	5
10	1821	2025	5
10	1839	2045	5
10	1857	2065	5
10	1875	2085	5
10	1893	2105	5
10	1911	2125	5
10	1929	2145	5
10	1947	2165	5
10	1965	2185	5
10	1983	2205	5
10	2001	2225	5
10	2019	2245	5
10	2037	2265	5
10	2055	2285	5
10	2073	2305	5
10	2091	2325	5
10	2109	2345	5
10	2127	2365	5
10	2145	2385	5
10	2163	2405	5
10	2181	2425	5
10	2199	2445	5
10	2217	2465	5
10	2235	2485	5
10	2253	2505	5
10	2271	2525	5
10	2289	2545	5
10	2307	2565	5
10	2325	2585	5
10	2343	2605	5
10	2361	2625	5
10	2379	2645	5
10	2397	2665	5
10	2415	2685	5
10	2433	2705	5
10	2451	2725	5
10	2469	2745	5
10	2487	2765	5
10	2505	2785	5
10	2523	2805	5
10	2541	2825	5
10	2559	2845	5
10	2577	2865	5
10	2595	2885	5
10	2613	2905	5
10	2631	2925	5
10	2649	2945	5
10	2667	2965	5
10	2685	2985	5
10	2703	3005	5
10	2721	3025	5
10	2739	3045	5
10	2757	3065	5
10	2775	3085	5
10	2793	3105	5
10	2811	3125	5
10	2829	3145	5
10	2847	3165	5
10	2865	3185	5
10	2883	3205	5
10	2901	3225	5
10	2919	3245	5
10	2937	3265	5
10	2955	3285	5
10	2973	3305	5
10	2991	3325	5
10	3009	3345	5
10	3027	3365	5
10	3045	3385	5
10	3063	3405	5
10	3081	3425	5
10	3099	3445	5
10	3117	3465	5
10	3135	3485	5
10	3153	3505	5
10	3171	3525	5
10	3189	3545	5
10	3207	3565	5
10	3225	3585	5
11	21	25	0
11	39	45	0
11	57	65	0
11	75	85	0
11	93	105	0
11	111	125	0
11	129	145	0
11	147	165	0
11	165	185	0
11	183	205	0
11	201	225	0
11	219	245	0
11	237	265	0
11	255	285	0
11	273	305	0
11	291	325	0
11	309	345	0
11	327	365	0
11	345	385	0
11	363	405	0
11	381	425	0
11	399	445	0
11	417	465	0
11	435	485	0
11	453	505	0
11	471	525	0
11	489	545	0
11	507	565	0
11	525	585	0
11	543	605	0
11	561	625	0
11	579	645	0
11	597	665	0
11	615	685	0
11	633	705	0
11	651	725	0
11	669	745	0
11	687	765	0
11	705	785	0
11	723	805	0
11	741	825	0
11	759	845	0
11	777	865	0
11	795	885	0
11	813	905	0
11	831	925	0
11	849	945	0
11	867	965	0
11	885	985	0
11	903	1005	0
11	921	1025	0
11	939	1045	0
11	957	1065	0
11	975	1085	0
11	993	1105	0
11	1011	1125	0
11	1029	1145	0
11	1047	1165	0
11	1065	1185	0
11	1083	1205	0
11	1101	1225	0
11	1119	1245	0
11	1137	1265	0
11	1155	1285	0
11	1173	1305	0
11	1191	1325	0
11	1209	1345	0
11	1227	1365	0
11	1245	1385	0
11	1263	1405	0
11	1281	1425	0
11	1299	1445	0
11	1317	1465	0
11	1335	1485	0
11	1353	1505	0
11	1371	1525	0
11	1389	1545	0
11	1407	1565	0
11	1425	1585	0
11	1443	1605	0
11	1461	1625	0
11	1479	1645	0
11	1497	1665	0
11	1515	1685	0
11	1533	1705	0
11	1551	1725	0
11	1569	1745	0
11	1587	1765	0
11	1605	1785	0
11	1623	1805	0
11	1641	1825	0
11	1659	1845	0
11	1677	1865	0
11	1695	1885	0
11	1713	1905	0
11	1731	1925	0
11	1749	1945	0
11	1767	1965	0
11	1785	1985	0
11	1803	2005	0
11	1821	2025	0
11	1839	2045	0
11	1857	2065	0
11	1875	2085	0
11	1893	2105	0
11	1911	2125	0
11	1929	2145	0
11	1947	2165	0
11	1965	2185	0
11	1983	2205	0
11	2001	2225	0
11	2019	2245	0
11	2037	2265	0
11	2055	2285	0
11	2073	2305	0
11	2091	2325	0
11	2109	2345	0
11	2127	2365	0
11	2145	2385	0
11	2163	2405	0
11	2181	2425	0
11	2199	2445	0
11	2217	2465	0
11	2235	2485	0
11	2253	2505	0
11	2271	2525	0
11	2289	2545	0
11	2307	2565	0
11	2325	2585	0
11	2343	2605	0
11	2361	2625	0
11	2379	2645	0
11	2397	2665	0
11	2415	2685	0
11	2433	2705	0
11	2451	2725	0
11	2469	2745	0
11	2487	2765	0
11	2505	2785	0
11	2523	2805	0
11	2541	2825	0
11	2559	2845	0
11	2577	2865	0
11	2595	2885	0
11	2613	2905	0
11	2631	2925	0
11	2649	2945	0
11	2667	2965	0
11	2685	2985	0
11	2703	3005	0
11	2721	3025	0
11	2739	3045	0
11	2757	3065	0
11	2775	3085	0
11	2793	3105	0
11	2811	3125	0
11	2829	3145	0
11	2847	3165	0
11	2865	3185	0
11	2883	3205	0
11	2901	3225	0
11	2919	3245	0
11	2937	3265	0
11	2955	3285	0
11	2973	3305	0
11	2991	3325	0
11	3009	3345	0
11	3027	3365	0
11	3045	3385	0
11	3063	3405	0
11	3081	3425	0
11	3099	3445	0
11	3117	3465	0
11	3135	3485	0
11	3153	3505	0
11	3171	3525	0
11	3189	3545	0
11	3207	3565	0
11	3225	3585	0

