version 2
run ConsistencyTest2b-0-20210119-12:21:57-5198
attr configname ConsistencyTest2b
attr datetime 20210119-12:21:57
attr experiment ConsistencyTest2b
attr inifile omnetpp.ini
attr iterationvars ""
attr iterationvarsf ""
attr measurement ""
attr network slottedNetwork
attr processid 5198
attr repetition 0
attr replication #0
attr resultdir results
attr runnumber 0
attr seedset 0
param **.numTransmitters 4
param **.numChannels 500
param **.sendProbability 1
param **.expMean 20s
param **.timeSlotSize 5s
param **.thresh 20s
param **.deterministicInterarrivalTime true
param **.numTransmitters 1
param **.numChannels 1
param **.sendProbability 1
param **.expMean 5s
param **.timeSlotSize 5s
param **.thresh 20s
param **.deterministicInterarrivalTime false

vector 0 slottedNetwork.ch throughput:vector ETV
attr source throughputSignal
vector 1 slottedNetwork.transmitters[0] numPacketCreated:vector ETV
attr source numPacketCreatedSignal
vector 2 slottedNetwork.transmitters[1] numPacketCreated:vector ETV
attr source numPacketCreatedSignal
vector 3 slottedNetwork.transmitters[2] numPacketCreated:vector ETV
attr source numPacketCreatedSignal
vector 4 slottedNetwork.transmitters[3] numPacketCreated:vector ETV
attr source numPacketCreatedSignal
vector 5 slottedNetwork.receivers[0] numPacketReceived:vector ETV
attr source numPacketReceivedSignal
vector 6 slottedNetwork.receivers[0] responseTime:vector ETV
attr source responseTimeSignal
vector 7 slottedNetwork.receivers[0] threshold:vector ETV
attr source thresholdSignal
vector 8 slottedNetwork.receivers[1] numPacketReceived:vector ETV
attr source numPacketReceivedSignal
vector 9 slottedNetwork.receivers[1] responseTime:vector ETV
attr source responseTimeSignal
vector 10 slottedNetwork.receivers[1] threshold:vector ETV
attr source thresholdSignal
vector 11 slottedNetwork.receivers[2] numPacketReceived:vector ETV
attr source numPacketReceivedSignal
vector 12 slottedNetwork.receivers[2] responseTime:vector ETV
attr source responseTimeSignal
vector 13 slottedNetwork.receivers[2] threshold:vector ETV
attr source thresholdSignal
vector 14 slottedNetwork.receivers[3] numPacketReceived:vector ETV
attr source numPacketReceivedSignal
vector 15 slottedNetwork.receivers[3] responseTime:vector ETV
attr source responseTimeSignal
vector 16 slottedNetwork.receivers[3] threshold:vector ETV
attr source thresholdSignal
0	1	5	0
0	6	10	0
0	11	15	0
0	20	20	0
0	29	25	4
0	38	30	0
0	43	35	0
0	52	40	0
0	61	45	4
0	70	50	0
0	75	55	0
0	84	60	0
0	93	65	4
0	102	70	0
0	107	75	0
0	116	80	0
0	125	85	4
0	134	90	0
0	139	95	0
0	148	100	0
0	157	105	4
0	166	110	0
0	171	115	0
0	180	120	0
0	189	125	4
0	198	130	0
0	203	135	0
0	212	140	0
0	221	145	4
0	230	150	0
0	235	155	0
0	244	160	0
0	253	165	4
0	262	170	0
0	267	175	0
0	276	180	0
0	285	185	4
0	294	190	0
0	299	195	0
0	308	200	0
0	317	205	4
0	326	210	0
0	331	215	0
0	340	220	0
0	349	225	4
0	358	230	0
0	363	235	0
0	372	240	0
0	381	245	4
0	390	250	0
0	395	255	0
0	404	260	0
0	413	265	4
0	422	270	0
0	427	275	0
0	436	280	0
0	445	285	4
0	454	290	0
0	459	295	0
0	468	300	0
0	477	305	4
0	486	310	0
0	491	315	0
0	500	320	0
0	509	325	4
0	518	330	0
0	523	335	0
0	532	340	0
0	541	345	4
0	550	350	0
0	555	355	0
0	564	360	0
0	573	365	4
0	582	370	0
0	587	375	0
0	596	380	0
0	605	385	4
0	614	390	0
0	619	395	0
0	628	400	0
0	637	405	4
0	646	410	0
0	651	415	0
0	660	420	0
0	669	425	4
0	678	430	0
0	683	435	0
0	692	440	0
0	701	445	4
0	710	450	0
0	715	455	0
0	724	460	0
0	733	465	4
0	742	470	0
0	747	475	0
0	756	480	0
0	765	485	4
0	774	490	0
0	779	495	0
0	788	500	0
0	797	505	4
0	806	510	0
0	811	515	0
0	820	520	0
0	829	525	4
0	838	530	0
0	843	535	0
0	852	540	0
0	861	545	4
0	870	550	0
0	875	555	0
0	884	560	0
0	893	565	4
0	902	570	0
0	907	575	0
0	916	580	0
0	925	585	4
0	934	590	0
0	939	595	0
0	948	600	0
0	957	605	4
0	966	610	0
0	971	615	0
0	980	620	0
0	989	625	4
0	998	630	0
0	1003	635	0
0	1012	640	0
0	1021	645	4
0	1030	650	0
0	1035	655	0
0	1044	660	0
0	1053	665	4
0	1062	670	0
0	1067	675	0
0	1076	680	0
0	1085	685	4
0	1094	690	0
0	1099	695	0
0	1108	700	0
0	1117	705	4
0	1126	710	0
0	1131	715	0
0	1140	720	0
0	1149	725	4
0	1158	730	0
0	1163	735	0
0	1172	740	0
0	1181	745	4
0	1190	750	0
0	1195	755	0
0	1204	760	0
0	1213	765	4
0	1222	770	0
0	1227	775	0
0	1236	780	0
0	1245	785	4
0	1254	790	0
0	1259	795	0
0	1268	800	0
0	1277	805	4
0	1286	810	0
0	1291	815	0
0	1300	820	0
0	1309	825	4
0	1318	830	0
0	1323	835	0
0	1332	840	0
0	1341	845	4
0	1350	850	0
0	1355	855	0
0	1364	860	0
0	1373	865	4
0	1382	870	0
0	1387	875	0
0	1396	880	0
0	1405	885	4
0	1414	890	0
0	1419	895	0
0	1428	900	0
0	1437	905	4
0	1446	910	0
0	1451	915	0
0	1460	920	0
0	1469	925	4
0	1478	930	0
0	1483	935	0
0	1492	940	0
0	1501	945	4
0	1510	950	0
0	1515	955	0
0	1524	960	0
0	1533	965	4
0	1542	970	0
0	1547	975	0
0	1556	980	0
0	1565	985	4
0	1574	990	0
0	1579	995	0
0	1588	1000	0
0	1597	1005	4
0	1606	1010	0
0	1611	1015	0
0	1620	1020	0
0	1629	1025	4
0	1638	1030	0
0	1643	1035	0
0	1652	1040	0
0	1661	1045	4
0	1670	1050	0
0	1675	1055	0
0	1684	1060	0
0	1693	1065	4
0	1702	1070	0
0	1707	1075	0
0	1716	1080	0
0	1725	1085	4
0	1734	1090	0
0	1739	1095	0
0	1748	1100	0
0	1757	1105	4
0	1766	1110	0
0	1771	1115	0
0	1780	1120	0
0	1789	1125	4
0	1798	1130	0
0	1803	1135	0
0	1812	1140	0
0	1821	1145	4
0	1830	1150	0
0	1835	1155	0
0	1844	1160	0
0	1853	1165	4
0	1862	1170	0
0	1867	1175	0
0	1876	1180	0
0	1885	1185	4
0	1894	1190	0
0	1899	1195	0
0	1908	1200	0
0	1917	1205	4
0	1926	1210	0
0	1931	1215	0
0	1940	1220	0
0	1949	1225	4
0	1958	1230	0
0	1963	1235	0
0	1972	1240	0
0	1981	1245	4
0	1990	1250	0
0	1995	1255	0
0	2004	1260	0
0	2013	1265	4
0	2022	1270	0
0	2027	1275	0
0	2036	1280	0
0	2045	1285	4
0	2054	1290	0
0	2059	1295	0
0	2068	1300	0
0	2077	1305	4
0	2086	1310	0
0	2091	1315	0
0	2100	1320	0
0	2109	1325	4
0	2118	1330	0
0	2123	1335	0
0	2132	1340	0
0	2141	1345	4
0	2150	1350	0
0	2155	1355	0
0	2164	1360	0
0	2173	1365	4
0	2182	1370	0
0	2187	1375	0
0	2196	1380	0
0	2205	1385	4
0	2214	1390	0
0	2219	1395	0
0	2228	1400	0
0	2237	1405	4
0	2246	1410	0
0	2251	1415	0
0	2260	1420	0
0	2269	1425	4
0	2278	1430	0
0	2283	1435	0
0	2292	1440	0
0	2301	1445	4
0	2310	1450	0
0	2315	1455	0
0	2324	1460	0
0	2333	1465	4
0	2342	1470	0
0	2347	1475	0
0	2356	1480	0
0	2365	1485	4
0	2374	1490	0
0	2379	1495	0
0	2388	1500	0
0	2397	1505	4
0	2406	1510	0
0	2411	1515	0
0	2420	1520	0
0	2429	1525	4
0	2438	1530	0
0	2443	1535	0
0	2452	1540	0
0	2461	1545	4
0	2470	1550	0
0	2475	1555	0
0	2484	1560	0
0	2493	1565	4
0	2502	1570	0
0	2507	1575	0
0	2516	1580	0
0	2525	1585	4
0	2534	1590	0
0	2539	1595	0
0	2548	1600	0
0	2557	1605	4
0	2566	1610	0
0	2571	1615	0
0	2580	1620	0
0	2589	1625	4
0	2598	1630	0
0	2603	1635	0
0	2612	1640	0
0	2621	1645	4
0	2630	1650	0
0	2635	1655	0
0	2644	1660	0
0	2653	1665	4
0	2662	1670	0
0	2667	1675	0
0	2676	1680	0
0	2685	1685	4
0	2694	1690	0
0	2699	1695	0
0	2708	1700	0
0	2717	1705	4
0	2726	1710	0
0	2731	1715	0
0	2740	1720	0
0	2749	1725	4
0	2758	1730	0
0	2763	1735	0
0	2772	1740	0
0	2781	1745	4
0	2790	1750	0
0	2795	1755	0
0	2804	1760	0
0	2813	1765	4
0	2822	1770	0
0	2827	1775	0
0	2836	1780	0
0	2845	1785	4
0	2854	1790	0
0	2859	1795	0
0	2868	1800	0
0	2877	1805	4
0	2886	1810	0
0	2891	1815	0
0	2900	1820	0
0	2909	1825	4
0	2918	1830	0
0	2923	1835	0
0	2932	1840	0
0	2941	1845	4
0	2950	1850	0
0	2955	1855	0
0	2964	1860	0
0	2973	1865	4
0	2982	1870	0
0	2987	1875	0
0	2996	1880	0
0	3005	1885	4
0	3014	1890	0
0	3019	1895	0
0	3028	1900	0
0	3037	1905	4
0	3046	1910	0
0	3051	1915	0
0	3060	1920	0
0	3069	1925	4
0	3078	1930	0
0	3083	1935	0
0	3092	1940	0
0	3101	1945	4
0	3110	1950	0
0	3115	1955	0
0	3124	1960	0
0	3133	1965	4
0	3142	1970	0
0	3147	1975	0
0	3156	1980	0
0	3165	1985	4
0	3174	1990	0
0	3179	1995	0
0	3188	2000	0
0	3197	2005	4
0	3206	2010	0
0	3211	2015	0
0	3220	2020	0
0	3229	2025	4
0	3238	2030	0
0	3243	2035	0
0	3252	2040	0
0	3261	2045	4
0	3270	2050	0
0	3275	2055	0
0	3284	2060	0
0	3293	2065	4
0	3302	2070	0
0	3307	2075	0
0	3316	2080	0
0	3325	2085	4
0	3334	2090	0
0	3339	2095	0
0	3348	2100	0
0	3357	2105	4
0	3366	2110	0
0	3371	2115	0
0	3380	2120	0
0	3389	2125	4
0	3398	2130	0
0	3403	2135	0
0	3412	2140	0
0	3421	2145	4
0	3430	2150	0
0	3435	2155	0
0	3444	2160	0
0	3453	2165	4
0	3462	2170	0
0	3467	2175	0
0	3476	2180	0
0	3485	2185	4
0	3494	2190	0
0	3499	2195	0
0	3508	2200	0
0	3517	2205	4
0	3526	2210	0
0	3531	2215	0
0	3540	2220	0
0	3549	2225	4
0	3558	2230	0
0	3563	2235	0
0	3572	2240	0
0	3581	2245	4
0	3590	2250	0
0	3595	2255	0
0	3604	2260	0
0	3613	2265	4
0	3622	2270	0
0	3627	2275	0
0	3636	2280	0
0	3645	2285	4
0	3654	2290	0
0	3659	2295	0
0	3668	2300	0
0	3677	2305	4
0	3686	2310	0
0	3691	2315	0
0	3700	2320	0
0	3709	2325	4
0	3718	2330	0
0	3723	2335	0
0	3732	2340	0
0	3741	2345	4
0	3750	2350	0
0	3755	2355	0
0	3764	2360	0
0	3773	2365	4
0	3782	2370	0
0	3787	2375	0
0	3796	2380	0
0	3805	2385	2
0	3812	2390	0
0	3817	2395	0
0	3826	2400	0
0	3834	2405	3
0	3843	2410	1
0	3850	2415	1
0	3861	2420	1
0	3871	2425	4
0	3880	2430	0
0	3885	2435	0
0	3894	2440	0
0	3903	2445	4
0	3912	2450	0
0	3917	2455	0
0	3926	2460	0
0	3935	2465	4
0	3944	2470	0
0	3949	2475	0
0	3958	2480	0
0	3967	2485	4
0	3976	2490	0
0	3981	2495	0
0	3990	2500	0
0	3999	2505	4
0	4008	2510	0
0	4013	2515	0
0	4022	2520	0
0	4031	2525	4
0	4040	2530	0
0	4045	2535	0
0	4054	2540	0
0	4063	2545	4
0	4072	2550	0
0	4077	2555	0
0	4086	2560	0
0	4095	2565	4
0	4104	2570	0
0	4109	2575	0
0	4118	2580	0
0	4127	2585	4
0	4136	2590	0
0	4141	2595	0
0	4150	2600	0
0	4159	2605	4
0	4168	2610	0
0	4173	2615	0
0	4182	2620	0
0	4191	2625	4
0	4200	2630	0
0	4205	2635	0
0	4214	2640	0
0	4223	2645	2
0	4230	2650	0
0	4235	2655	0
0	4246	2660	2
0	4257	2665	4
0	4266	2670	0
0	4271	2675	0
0	4280	2680	0
0	4289	2685	4
0	4298	2690	0
0	4303	2695	0
0	4312	2700	0
0	4321	2705	4
0	4330	2710	0
0	4335	2715	0
0	4344	2720	0
0	4353	2725	4
0	4362	2730	0
0	4367	2735	0
0	4376	2740	0
0	4385	2745	4
0	4394	2750	0
0	4399	2755	0
0	4408	2760	0
0	4417	2765	4
0	4426	2770	0
0	4431	2775	0
0	4440	2780	0
0	4449	2785	4
0	4458	2790	0
0	4463	2795	0
0	4472	2800	0
0	4481	2805	4
0	4490	2810	0
0	4495	2815	0
0	4504	2820	0
0	4513	2825	4
0	4522	2830	0
0	4527	2835	0
0	4536	2840	0
0	4545	2845	4
0	4554	2850	0
0	4559	2855	0
0	4568	2860	0
0	4577	2865	4
0	4586	2870	0
0	4591	2875	0
0	4600	2880	0
0	4609	2885	4
0	4618	2890	0
0	4623	2895	0
0	4632	2900	0
0	4641	2905	4
0	4650	2910	0
0	4655	2915	0
0	4664	2920	0
0	4673	2925	4
0	4682	2930	0
0	4687	2935	0
0	4696	2940	0
0	4705	2945	4
0	4714	2950	0
0	4719	2955	0
0	4728	2960	0
0	4737	2965	4
0	4746	2970	0
0	4751	2975	0
0	4760	2980	0
0	4769	2985	4
0	4778	2990	0
0	4783	2995	0
0	4792	3000	0
0	4801	3005	4
0	4810	3010	0
0	4815	3015	0
0	4824	3020	0
0	4833	3025	4
0	4842	3030	0
0	4847	3035	0
0	4856	3040	0
0	4865	3045	4
0	4874	3050	0
0	4879	3055	0
0	4888	3060	0
0	4897	3065	4
0	4906	3070	0
0	4911	3075	0
0	4920	3080	0
0	4929	3085	4
0	4938	3090	0
0	4943	3095	0
0	4952	3100	0
0	4961	3105	4
0	4970	3110	0
0	4975	3115	0
0	4984	3120	0
0	4993	3125	4
0	5002	3130	0
0	5007	3135	0
0	5016	3140	0
0	5025	3145	4
0	5034	3150	0
0	5039	3155	0
0	5048	3160	0
0	5057	3165	4
0	5066	3170	0
0	5071	3175	0
0	5080	3180	0
0	5089	3185	4
0	5098	3190	0
0	5103	3195	0
0	5112	3200	0
0	5121	3205	4
0	5130	3210	0
0	5135	3215	0
0	5144	3220	0
0	5153	3225	4
0	5162	3230	0
0	5167	3235	0
0	5176	3240	0
0	5185	3245	4
0	5194	3250	0
0	5199	3255	0
0	5208	3260	0
0	5217	3265	4
0	5226	3270	0
0	5231	3275	0
0	5240	3280	0
0	5249	3285	4
0	5258	3290	0
0	5263	3295	0
0	5272	3300	0
0	5281	3305	4
0	5290	3310	0
0	5295	3315	0
0	5304	3320	0
0	5313	3325	4
0	5322	3330	0
0	5327	3335	0
0	5336	3340	0
0	5345	3345	4
0	5354	3350	0
0	5359	3355	0
0	5368	3360	0
0	5377	3365	4
0	5386	3370	0
0	5391	3375	0
0	5400	3380	0
0	5409	3385	4
0	5418	3390	0
0	5423	3395	0
0	5432	3400	0
0	5441	3405	4
0	5450	3410	0
0	5455	3415	0
0	5464	3420	0
0	5473	3425	4
0	5482	3430	0
0	5487	3435	0
0	5496	3440	0
0	5505	3445	4
0	5514	3450	0
0	5519	3455	0
0	5528	3460	0
0	5537	3465	4
0	5546	3470	0
0	5551	3475	0
0	5560	3480	0
0	5569	3485	4
0	5578	3490	0
0	5583	3495	0
0	5592	3500	0
0	5601	3505	4
0	5610	3510	0
0	5615	3515	0
0	5624	3520	0
0	5633	3525	4
0	5642	3530	0
0	5647	3535	0
0	5656	3540	0
0	5665	3545	4
0	5674	3550	0
0	5679	3555	0
0	5688	3560	0
0	5697	3565	4
0	5706	3570	0
0	5711	3575	0
0	5720	3580	0
0	5729	3585	4
0	5738	3590	0
0	5743	3595	0
0	5752	3600	0
1	16	20	1
1	48	40	1
1	80	60	1
1	112	80	1
1	144	100	1
1	176	120	1
1	208	140	1
1	240	160	1
1	272	180	1
1	304	200	1
1	336	220	1
1	368	240	1
1	400	260	1
1	432	280	1
1	464	300	1
1	496	320	1
1	528	340	1
1	560	360	1
1	592	380	1
1	624	400	1
1	656	420	1
1	688	440	1
1	720	460	1
1	752	480	1
1	784	500	1
1	816	520	1
1	848	540	1
1	880	560	1
1	912	580	1
1	944	600	1
1	976	620	1
1	1008	640	1
1	1040	660	1
1	1072	680	1
1	1104	700	1
1	1136	720	1
1	1168	740	1
1	1200	760	1
1	1232	780	1
1	1264	800	1
1	1296	820	1
1	1328	840	1
1	1360	860	1
1	1392	880	1
1	1424	900	1
1	1456	920	1
1	1488	940	1
1	1520	960	1
1	1552	980	1
1	1584	1000	1
1	1616	1020	1
1	1648	1040	1
1	1680	1060	1
1	1712	1080	1
1	1744	1100	1
1	1776	1120	1
1	1808	1140	1
1	1840	1160	1
1	1872	1180	1
1	1904	1200	1
1	1936	1220	1
1	1968	1240	1
1	2000	1260	1
1	2032	1280	1
1	2064	1300	1
1	2096	1320	1
1	2128	1340	1
1	2160	1360	1
1	2192	1380	1
1	2224	1400	1
1	2256	1420	1
1	2288	1440	1
1	2320	1460	1
1	2352	1480	1
1	2384	1500	1
1	2416	1520	1
1	2448	1540	1
1	2480	1560	1
1	2512	1580	1
1	2544	1600	1
1	2576	1620	1
1	2608	1640	1
1	2640	1660	1
1	2672	1680	1
1	2704	1700	1
1	2736	1720	1
1	2768	1740	1
1	2800	1760	1
1	2832	1780	1
1	2864	1800	1
1	2896	1820	1
1	2928	1840	1
1	2960	1860	1
1	2992	1880	1
1	3024	1900	1
1	3056	1920	1
1	3088	1940	1
1	3120	1960	1
1	3152	1980	1
1	3184	2000	1
1	3216	2020	1
1	3248	2040	1
1	3280	2060	1
1	3312	2080	1
1	3344	2100	1
1	3376	2120	1
1	3408	2140	1
1	3440	2160	1
1	3472	2180	1
1	3504	2200	1
1	3536	2220	1
1	3568	2240	1
1	3600	2260	1
1	3632	2280	1
1	3664	2300	1
1	3696	2320	1
1	3728	2340	1
1	3760	2360	1
1	3792	2380	1
1	3822	2400	1
1	3857	2420	1
1	3890	2440	1
1	3922	2460	1
1	3954	2480	1
1	3986	2500	1
1	4018	2520	1
1	4050	2540	1
1	4082	2560	1
1	4114	2580	1
1	4146	2600	1
1	4178	2620	1
1	4210	2640	1
1	4242	2660	1
1	4276	2680	1
1	4308	2700	1
1	4340	2720	1
1	4372	2740	1
1	4404	2760	1
1	4436	2780	1
1	4468	2800	1
1	4500	2820	1
1	4532	2840	1
1	4564	2860	1
1	4596	2880	1
1	4628	2900	1
1	4660	2920	1
1	4692	2940	1
1	4724	2960	1
1	4756	2980	1
1	4788	3000	1
1	4820	3020	1
1	4852	3040	1
1	4884	3060	1
1	4916	3080	1
1	4948	3100	1
1	4980	3120	1
1	5012	3140	1
1	5044	3160	1
1	5076	3180	1
1	5108	3200	1
1	5140	3220	1
1	5172	3240	1
1	5204	3260	1
1	5236	3280	1
1	5268	3300	1
1	5300	3320	1
1	5332	3340	1
1	5364	3360	1
1	5396	3380	1
1	5428	3400	1
1	5460	3420	1
1	5492	3440	1
1	5524	3460	1
1	5556	3480	1
1	5588	3500	1
1	5620	3520	1
1	5652	3540	1
1	5684	3560	1
1	5716	3580	1
1	5748	3600	1
2	17	20	1
2	49	40	1
2	81	60	1
2	113	80	1
2	145	100	1
2	177	120	1
2	209	140	1
2	241	160	1
2	273	180	1
2	305	200	1
2	337	220	1
2	369	240	1
2	401	260	1
2	433	280	1
2	465	300	1
2	497	320	1
2	529	340	1
2	561	360	1
2	593	380	1
2	625	400	1
2	657	420	1
2	689	440	1
2	721	460	1
2	753	480	1
2	785	500	1
2	817	520	1
2	849	540	1
2	881	560	1
2	913	580	1
2	945	600	1
2	977	620	1
2	1009	640	1
2	1041	660	1
2	1073	680	1
2	1105	700	1
2	1137	720	1
2	1169	740	1
2	1201	760	1
2	1233	780	1
2	1265	800	1
2	1297	820	1
2	1329	840	1
2	1361	860	1
2	1393	880	1
2	1425	900	1
2	1457	920	1
2	1489	940	1
2	1521	960	1
2	1553	980	1
2	1585	1000	1
2	1617	1020	1
2	1649	1040	1
2	1681	1060	1
2	1713	1080	1
2	1745	1100	1
2	1777	1120	1
2	1809	1140	1
2	1841	1160	1
2	1873	1180	1
2	1905	1200	1
2	1937	1220	1
2	1969	1240	1
2	2001	1260	1
2	2033	1280	1
2	2065	1300	1
2	2097	1320	1
2	2129	1340	1
2	2161	1360	1
2	2193	1380	1
2	2225	1400	1
2	2257	1420	1
2	2289	1440	1
2	2321	1460	1
2	2353	1480	1
2	2385	1500	1
2	2417	1520	1
2	2449	1540	1
2	2481	1560	1
2	2513	1580	1
2	2545	1600	1
2	2577	1620	1
2	2609	1640	1
2	2641	1660	1
2	2673	1680	1
2	2705	1700	1
2	2737	1720	1
2	2769	1740	1
2	2801	1760	1
2	2833	1780	1
2	2865	1800	1
2	2897	1820	1
2	2929	1840	1
2	2961	1860	1
2	2993	1880	1
2	3025	1900	1
2	3057	1920	1
2	3089	1940	1
2	3121	1960	1
2	3153	1980	1
2	3185	2000	1
2	3217	2020	1
2	3249	2040	1
2	3281	2060	1
2	3313	2080	1
2	3345	2100	1
2	3377	2120	1
2	3409	2140	1
2	3441	2160	1
2	3473	2180	1
2	3505	2200	1
2	3537	2220	1
2	3569	2240	1
2	3601	2260	1
2	3633	2280	1
2	3665	2300	1
2	3697	2320	1
2	3729	2340	1
2	3761	2360	1
2	3793	2380	1
2	3823	2400	1
2	3858	2420	1
2	3891	2440	1
2	3923	2460	1
2	3955	2480	1
2	3987	2500	1
2	4019	2520	1
2	4051	2540	1
2	4083	2560	1
2	4115	2580	1
2	4147	2600	1
2	4179	2620	1
2	4211	2640	1
2	4243	2660	1
2	4277	2680	1
2	4309	2700	1
2	4341	2720	1
2	4373	2740	1
2	4405	2760	1
2	4437	2780	1
2	4469	2800	1
2	4501	2820	1
2	4533	2840	1
2	4565	2860	1
2	4597	2880	1
2	4629	2900	1
2	4661	2920	1
2	4693	2940	1
2	4725	2960	1
2	4757	2980	1
2	4789	3000	1
2	4821	3020	1
2	4853	3040	1
2	4885	3060	1
2	4917	3080	1
2	4949	3100	1
2	4981	3120	1
2	5013	3140	1
2	5045	3160	1
2	5077	3180	1
2	5109	3200	1
2	5141	3220	1
2	5173	3240	1
2	5205	3260	1
2	5237	3280	1
2	5269	3300	1
2	5301	3320	1
2	5333	3340	1
2	5365	3360	1
2	5397	3380	1
2	5429	3400	1
2	5461	3420	1
2	5493	3440	1
2	5525	3460	1
2	5557	3480	1
2	5589	3500	1
2	5621	3520	1
2	5653	3540	1
2	5685	3560	1
2	5717	3580	1
2	5749	3600	1
3	18	20	1
3	50	40	1
3	82	60	1
3	114	80	1
3	146	100	1
3	178	120	1
3	210	140	1
3	242	160	1
3	274	180	1
3	306	200	1
3	338	220	1
3	370	240	1
3	402	260	1
3	434	280	1
3	466	300	1
3	498	320	1
3	530	340	1
3	562	360	1
3	594	380	1
3	626	400	1
3	658	420	1
3	690	440	1
3	722	460	1
3	754	480	1
3	786	500	1
3	818	520	1
3	850	540	1
3	882	560	1
3	914	580	1
3	946	600	1
3	978	620	1
3	1010	640	1
3	1042	660	1
3	1074	680	1
3	1106	700	1
3	1138	720	1
3	1170	740	1
3	1202	760	1
3	1234	780	1
3	1266	800	1
3	1298	820	1
3	1330	840	1
3	1362	860	1
3	1394	880	1
3	1426	900	1
3	1458	920	1
3	1490	940	1
3	1522	960	1
3	1554	980	1
3	1586	1000	1
3	1618	1020	1
3	1650	1040	1
3	1682	1060	1
3	1714	1080	1
3	1746	1100	1
3	1778	1120	1
3	1810	1140	1
3	1842	1160	1
3	1874	1180	1
3	1906	1200	1
3	1938	1220	1
3	1970	1240	1
3	2002	1260	1
3	2034	1280	1
3	2066	1300	1
3	2098	1320	1
3	2130	1340	1
3	2162	1360	1
3	2194	1380	1
3	2226	1400	1
3	2258	1420	1
3	2290	1440	1
3	2322	1460	1
3	2354	1480	1
3	2386	1500	1
3	2418	1520	1
3	2450	1540	1
3	2482	1560	1
3	2514	1580	1
3	2546	1600	1
3	2578	1620	1
3	2610	1640	1
3	2642	1660	1
3	2674	1680	1
3	2706	1700	1
3	2738	1720	1
3	2770	1740	1
3	2802	1760	1
3	2834	1780	1
3	2866	1800	1
3	2898	1820	1
3	2930	1840	1
3	2962	1860	1
3	2994	1880	1
3	3026	1900	1
3	3058	1920	1
3	3090	1940	1
3	3122	1960	1
3	3154	1980	1
3	3186	2000	1
3	3218	2020	1
3	3250	2040	1
3	3282	2060	1
3	3314	2080	1
3	3346	2100	1
3	3378	2120	1
3	3410	2140	1
3	3442	2160	1
3	3474	2180	1
3	3506	2200	1
3	3538	2220	1
3	3570	2240	1
3	3602	2260	1
3	3634	2280	1
3	3666	2300	1
3	3698	2320	1
3	3730	2340	1
3	3762	2360	1
3	3794	2380	1
3	3824	2400	1
3	3859	2420	1
3	3892	2440	1
3	3924	2460	1
3	3956	2480	1
3	3988	2500	1
3	4020	2520	1
3	4052	2540	1
3	4084	2560	1
3	4116	2580	1
3	4148	2600	1
3	4180	2620	1
3	4212	2640	1
3	4244	2660	1
3	4278	2680	1
3	4310	2700	1
3	4342	2720	1
3	4374	2740	1
3	4406	2760	1
3	4438	2780	1
3	4470	2800	1
3	4502	2820	1
3	4534	2840	1
3	4566	2860	1
3	4598	2880	1
3	4630	2900	1
3	4662	2920	1
3	4694	2940	1
3	4726	2960	1
3	4758	2980	1
3	4790	3000	1
3	4822	3020	1
3	4854	3040	1
3	4886	3060	1
3	4918	3080	1
3	4950	3100	1
3	4982	3120	1
3	5014	3140	1
3	5046	3160	1
3	5078	3180	1
3	5110	3200	1
3	5142	3220	1
3	5174	3240	1
3	5206	3260	1
3	5238	3280	1
3	5270	3300	1
3	5302	3320	1
3	5334	3340	1
3	5366	3360	1
3	5398	3380	1
3	5430	3400	1
3	5462	3420	1
3	5494	3440	1
3	5526	3460	1
3	5558	3480	1
3	5590	3500	1
3	5622	3520	1
3	5654	3540	1
3	5686	3560	1
3	5718	3580	1
3	5750	3600	1
4	19	20	1
4	51	40	1
4	83	60	1
4	115	80	1
4	147	100	1
4	179	120	1
4	211	140	1
4	243	160	1
4	275	180	1
4	307	200	1
4	339	220	1
4	371	240	1
4	403	260	1
4	435	280	1
4	467	300	1
4	499	320	1
4	531	340	1
4	563	360	1
4	595	380	1
4	627	400	1
4	659	420	1
4	691	440	1
4	723	460	1
4	755	480	1
4	787	500	1
4	819	520	1
4	851	540	1
4	883	560	1
4	915	580	1
4	947	600	1
4	979	620	1
4	1011	640	1
4	1043	660	1
4	1075	680	1
4	1107	700	1
4	1139	720	1
4	1171	740	1
4	1203	760	1
4	1235	780	1
4	1267	800	1
4	1299	820	1
4	1331	840	1
4	1363	860	1
4	1395	880	1
4	1427	900	1
4	1459	920	1
4	1491	940	1
4	1523	960	1
4	1555	980	1
4	1587	1000	1
4	1619	1020	1
4	1651	1040	1
4	1683	1060	1
4	1715	1080	1
4	1747	1100	1
4	1779	1120	1
4	1811	1140	1
4	1843	1160	1
4	1875	1180	1
4	1907	1200	1
4	1939	1220	1
4	1971	1240	1
4	2003	1260	1
4	2035	1280	1
4	2067	1300	1
4	2099	1320	1
4	2131	1340	1
4	2163	1360	1
4	2195	1380	1
4	2227	1400	1
4	2259	1420	1
4	2291	1440	1
4	2323	1460	1
4	2355	1480	1
4	2387	1500	1
4	2419	1520	1
4	2451	1540	1
4	2483	1560	1
4	2515	1580	1
4	2547	1600	1
4	2579	1620	1
4	2611	1640	1
4	2643	1660	1
4	2675	1680	1
4	2707	1700	1
4	2739	1720	1
4	2771	1740	1
4	2803	1760	1
4	2835	1780	1
4	2867	1800	1
4	2899	1820	1
4	2931	1840	1
4	2963	1860	1
4	2995	1880	1
4	3027	1900	1
4	3059	1920	1
4	3091	1940	1
4	3123	1960	1
4	3155	1980	1
4	3187	2000	1
4	3219	2020	1
4	3251	2040	1
4	3283	2060	1
4	3315	2080	1
4	3347	2100	1
4	3379	2120	1
4	3411	2140	1
4	3443	2160	1
4	3475	2180	1
4	3507	2200	1
4	3539	2220	1
4	3571	2240	1
4	3603	2260	1
4	3635	2280	1
4	3667	2300	1
4	3699	2320	1
4	3731	2340	1
4	3763	2360	1
4	3795	2380	1
4	3825	2400	1
4	3860	2420	1
4	3893	2440	1
4	3925	2460	1
4	3957	2480	1
4	3989	2500	1
4	4021	2520	1
4	4053	2540	1
4	4085	2560	1
4	4117	2580	1
4	4149	2600	1
4	4181	2620	1
4	4213	2640	1
4	4245	2660	1
4	4279	2680	1
4	4311	2700	1
4	4343	2720	1
4	4375	2740	1
4	4407	2760	1
4	4439	2780	1
4	4471	2800	1
4	4503	2820	1
4	4535	2840	1
4	4567	2860	1
4	4599	2880	1
4	4631	2900	1
4	4663	2920	1
4	4695	2940	1
4	4727	2960	1
4	4759	2980	1
4	4791	3000	1
4	4823	3020	1
4	4855	3040	1
4	4887	3060	1
4	4919	3080	1
4	4951	3100	1
4	4983	3120	1
4	5015	3140	1
4	5047	3160	1
4	5079	3180	1
4	5111	3200	1
4	5143	3220	1
4	5175	3240	1
4	5207	3260	1
4	5239	3280	1
4	5271	3300	1
4	5303	3320	1
4	5335	3340	1
4	5367	3360	1
4	5399	3380	1
4	5431	3400	1
4	5463	3420	1
4	5495	3440	1
4	5527	3460	1
4	5559	3480	1
4	5591	3500	1
4	5623	3520	1
4	5655	3540	1
4	5687	3560	1
4	5719	3580	1
4	5751	3600	1
5	31	25	1
5	63	45	1
5	95	65	1
5	127	85	1
5	159	105	1
5	191	125	1
5	223	145	1
5	255	165	1
5	287	185	1
5	319	205	1
5	351	225	1
5	383	245	1
5	415	265	1
5	447	285	1
5	479	305	1
5	511	325	1
5	543	345	1
5	575	365	1
5	607	385	1
5	639	405	1
5	671	425	1
5	703	445	1
5	735	465	1
5	767	485	1
5	799	505	1
5	831	525	1
5	863	545	1
5	895	565	1
5	927	585	1
5	959	605	1
5	991	625	1
5	1023	645	1
5	1055	665	1
5	1087	685	1
5	1119	705	1
5	1151	725	1
5	1183	745	1
5	1215	765	1
5	1247	785	1
5	1279	805	1
5	1311	825	1
5	1343	845	1
5	1375	865	1
5	1407	885	1
5	1439	905	1
5	1471	925	1
5	1503	945	1
5	1535	965	1
5	1567	985	1
5	1599	1005	1
5	1631	1025	1
5	1663	1045	1
5	1695	1065	1
5	1727	1085	1
5	1759	1105	1
5	1791	1125	1
5	1823	1145	1
5	1855	1165	1
5	1887	1185	1
5	1919	1205	1
5	1951	1225	1
5	1983	1245	1
5	2015	1265	1
5	2047	1285	1
5	2079	1305	1
5	2111	1325	1
5	2143	1345	1
5	2175	1365	1
5	2207	1385	1
5	2239	1405	1
5	2271	1425	1
5	2303	1445	1
5	2335	1465	1
5	2367	1485	1
5	2399	1505	1
5	2431	1525	1
5	2463	1545	1
5	2495	1565	1
5	2527	1585	1
5	2559	1605	1
5	2591	1625	1
5	2623	1645	1
5	2655	1665	1
5	2687	1685	1
5	2719	1705	1
5	2751	1725	1
5	2783	1745	1
5	2815	1765	1
5	2847	1785	1
5	2879	1805	1
5	2911	1825	1
5	2943	1845	1
5	2975	1865	1
5	3007	1885	1
5	3039	1905	1
5	3071	1925	1
5	3103	1945	1
5	3135	1965	1
5	3167	1985	1
5	3199	2005	1
5	3231	2025	1
5	3263	2045	1
5	3295	2065	1
5	3327	2085	1
5	3359	2105	1
5	3391	2125	1
5	3423	2145	1
5	3455	2165	1
5	3487	2185	1
5	3519	2205	1
5	3551	2225	1
5	3583	2245	1
5	3615	2265	1
5	3647	2285	1
5	3679	2305	1
5	3711	2325	1
5	3743	2345	1
5	3775	2365	1
5	3836	2405	1
5	3845	2410	1
5	3875	2425	1
5	3905	2445	1
5	3937	2465	1
5	3969	2485	1
5	4001	2505	1
5	4033	2525	1
5	4065	2545	1
5	4097	2565	1
5	4129	2585	1
5	4161	2605	1
5	4193	2625	1
5	4248	2660	1
5	4259	2665	1
5	4291	2685	1
5	4323	2705	1
5	4355	2725	1
5	4387	2745	1
5	4419	2765	1
5	4451	2785	1
5	4483	2805	1
5	4515	2825	1
5	4547	2845	1
5	4579	2865	1
5	4611	2885	1
5	4643	2905	1
5	4675	2925	1
5	4707	2945	1
5	4739	2965	1
5	4771	2985	1
5	4803	3005	1
5	4835	3025	1
5	4867	3045	1
5	4899	3065	1
5	4931	3085	1
5	4963	3105	1
5	4995	3125	1
5	5027	3145	1
5	5059	3165	1
5	5091	3185	1
5	5123	3205	1
5	5155	3225	1
5	5187	3245	1
5	5219	3265	1
5	5251	3285	1
5	5283	3305	1
5	5315	3325	1
5	5347	3345	1
5	5379	3365	1
5	5411	3385	1
5	5443	3405	1
5	5475	3425	1
5	5507	3445	1
5	5539	3465	1
5	5571	3485	1
5	5603	3505	1
5	5635	3525	1
5	5667	3545	1
5	5699	3565	1
5	5731	3585	1
6	31	25	5
6	63	45	5
6	95	65	5
6	127	85	5
6	159	105	5
6	191	125	5
6	223	145	5
6	255	165	5
6	287	185	5
6	319	205	5
6	351	225	5
6	383	245	5
6	415	265	5
6	447	285	5
6	479	305	5
6	511	325	5
6	543	345	5
6	575	365	5
6	607	385	5
6	639	405	5
6	671	425	5
6	703	445	5
6	735	465	5
6	767	485	5
6	799	505	5
6	831	525	5
6	863	545	5
6	895	565	5
6	927	585	5
6	959	605	5
6	991	625	5
6	1023	645	5
6	1055	665	5
6	1087	685	5
6	1119	705	5
6	1151	725	5
6	1183	745	5
6	1215	765	5
6	1247	785	5
6	1279	805	5
6	1311	825	5
6	1343	845	5
6	1375	865	5
6	1407	885	5
6	1439	905	5
6	1471	925	5
6	1503	945	5
6	1535	965	5
6	1567	985	5
6	1599	1005	5
6	1631	1025	5
6	1663	1045	5
6	1695	1065	5
6	1727	1085	5
6	1759	1105	5
6	1791	1125	5
6	1823	1145	5
6	1855	1165	5
6	1887	1185	5
6	1919	1205	5
6	1951	1225	5
6	1983	1245	5
6	2015	1265	5
6	2047	1285	5
6	2079	1305	5
6	2111	1325	5
6	2143	1345	5
6	2175	1365	5
6	2207	1385	5
6	2239	1405	5
6	2271	1425	5
6	2303	1445	5
6	2335	1465	5
6	2367	1485	5
6	2399	1505	5
6	2431	1525	5
6	2463	1545	5
6	2495	1565	5
6	2527	1585	5
6	2559	1605	5
6	2591	1625	5
6	2623	1645	5
6	2655	1665	5
6	2687	1685	5
6	2719	1705	5
6	2751	1725	5
6	2783	1745	5
6	2815	1765	5
6	2847	1785	5
6	2879	1805	5
6	2911	1825	5
6	2943	1845	5
6	2975	1865	5
6	3007	1885	5
6	3039	1905	5
6	3071	1925	5
6	3103	1945	5
6	3135	1965	5
6	3167	1985	5
6	3199	2005	5
6	3231	2025	5
6	3263	2045	5
6	3295	2065	5
6	3327	2085	5
6	3359	2105	5
6	3391	2125	5
6	3423	2145	5
6	3455	2165	5
6	3487	2185	5
6	3519	2205	5
6	3551	2225	5
6	3583	2245	5
6	3615	2265	5
6	3647	2285	5
6	3679	2305	5
6	3711	2325	5
6	3743	2345	5
6	3775	2365	5
6	3836	2405	25
6	3845	2410	10
6	3875	2425	5
6	3905	2445	5
6	3937	2465	5
6	3969	2485	5
6	4001	2505	5
6	4033	2525	5
6	4065	2545	5
6	4097	2565	5
6	4129	2585	5
6	4161	2605	5
6	4193	2625	5
6	4248	2660	20
6	4259	2665	5
6	4291	2685	5
6	4323	2705	5
6	4355	2725	5
6	4387	2745	5
6	4419	2765	5
6	4451	2785	5
6	4483	2805	5
6	4515	2825	5
6	4547	2845	5
6	4579	2865	5
6	4611	2885	5
6	4643	2905	5
6	4675	2925	5
6	4707	2945	5
6	4739	2965	5
6	4771	2985	5
6	4803	3005	5
6	4835	3025	5
6	4867	3045	5
6	4899	3065	5
6	4931	3085	5
6	4963	3105	5
6	4995	3125	5
6	5027	3145	5
6	5059	3165	5
6	5091	3185	5
6	5123	3205	5
6	5155	3225	5
6	5187	3245	5
6	5219	3265	5
6	5251	3285	5
6	5283	3305	5
6	5315	3325	5
6	5347	3345	5
6	5379	3365	5
6	5411	3385	5
6	5443	3405	5
6	5475	3425	5
6	5507	3445	5
6	5539	3465	5
6	5571	3485	5
6	5603	3505	5
6	5635	3525	5
6	5667	3545	5
6	5699	3565	5
6	5731	3585	5
7	31	25	0
7	63	45	0
7	95	65	0
7	127	85	0
7	159	105	0
7	191	125	0
7	223	145	0
7	255	165	0
7	287	185	0
7	319	205	0
7	351	225	0
7	383	245	0
7	415	265	0
7	447	285	0
7	479	305	0
7	511	325	0
7	543	345	0
7	575	365	0
7	607	385	0
7	639	405	0
7	671	425	0
7	703	445	0
7	735	465	0
7	767	485	0
7	799	505	0
7	831	525	0
7	863	545	0
7	895	565	0
7	927	585	0
7	959	605	0
7	991	625	0
7	1023	645	0
7	1055	665	0
7	1087	685	0
7	1119	705	0
7	1151	725	0
7	1183	745	0
7	1215	765	0
7	1247	785	0
7	1279	805	0
7	1311	825	0
7	1343	845	0
7	1375	865	0
7	1407	885	0
7	1439	905	0
7	1471	925	0
7	1503	945	0
7	1535	965	0
7	1567	985	0
7	1599	1005	0
7	1631	1025	0
7	1663	1045	0
7	1695	1065	0
7	1727	1085	0
7	1759	1105	0
7	1791	1125	0
7	1823	1145	0
7	1855	1165	0
7	1887	1185	0
7	1919	1205	0
7	1951	1225	0
7	1983	1245	0
7	2015	1265	0
7	2047	1285	0
7	2079	1305	0
7	2111	1325	0
7	2143	1345	0
7	2175	1365	0
7	2207	1385	0
7	2239	1405	0
7	2271	1425	0
7	2303	1445	0
7	2335	1465	0
7	2367	1485	0
7	2399	1505	0
7	2431	1525	0
7	2463	1545	0
7	2495	1565	0
7	2527	1585	0
7	2559	1605	0
7	2591	1625	0
7	2623	1645	0
7	2655	1665	0
7	2687	1685	0
7	2719	1705	0
7	2751	1725	0
7	2783	1745	0
7	2815	1765	0
7	2847	1785	0
7	2879	1805	0
7	2911	1825	0
7	2943	1845	0
7	2975	1865	0
7	3007	1885	0
7	3039	1905	0
7	3071	1925	0
7	3103	1945	0
7	3135	1965	0
7	3167	1985	0
7	3199	2005	0
7	3231	2025	0
7	3263	2045	0
7	3295	2065	0
7	3327	2085	0
7	3359	2105	0
7	3391	2125	0
7	3423	2145	0
7	3455	2165	0
7	3487	2185	0
7	3519	2205	0
7	3551	2225	0
7	3583	2245	0
7	3615	2265	0
7	3647	2285	0
7	3679	2305	0
7	3711	2325	0
7	3743	2345	0
7	3775	2365	0
7	3836	2405	1
7	3845	2410	0
7	3875	2425	0
7	3905	2445	0
7	3937	2465	0
7	3969	2485	0
7	4001	2505	0
7	4033	2525	0
7	4065	2545	0
7	4097	2565	0
7	4129	2585	0
7	4161	2605	0
7	4193	2625	0
7	4248	2660	1
7	4259	2665	0
7	4291	2685	0
7	4323	2705	0
7	4355	2725	0
7	4387	2745	0
7	4419	2765	0
7	4451	2785	0
7	4483	2805	0
7	4515	2825	0
7	4547	2845	0
7	4579	2865	0
7	4611	2885	0
7	4643	2905	0
7	4675	2925	0
7	4707	2945	0
7	4739	2965	0
7	4771	2985	0
7	4803	3005	0
7	4835	3025	0
7	4867	3045	0
7	4899	3065	0
7	4931	3085	0
7	4963	3105	0
7	4995	3125	0
7	5027	3145	0
7	5059	3165	0
7	5091	3185	0
7	5123	3205	0
7	5155	3225	0
7	5187	3245	0
7	5219	3265	0
7	5251	3285	0
7	5283	3305	0
7	5315	3325	0
7	5347	3345	0
7	5379	3365	0
7	5411	3385	0
7	5443	3405	0
7	5475	3425	0
7	5507	3445	0
7	5539	3465	0
7	5571	3485	0
7	5603	3505	0
7	5635	3525	0
7	5667	3545	0
7	5699	3565	0
7	5731	3585	0
8	33	25	1
8	65	45	1
8	97	65	1
8	129	85	1
8	161	105	1
8	193	125	1
8	225	145	1
8	257	165	1
8	289	185	1
8	321	205	1
8	353	225	1
8	385	245	1
8	417	265	1
8	449	285	1
8	481	305	1
8	513	325	1
8	545	345	1
8	577	365	1
8	609	385	1
8	641	405	1
8	673	425	1
8	705	445	1
8	737	465	1
8	769	485	1
8	801	505	1
8	833	525	1
8	865	545	1
8	897	565	1
8	929	585	1
8	961	605	1
8	993	625	1
8	1025	645	1
8	1057	665	1
8	1089	685	1
8	1121	705	1
8	1153	725	1
8	1185	745	1
8	1217	765	1
8	1249	785	1
8	1281	805	1
8	1313	825	1
8	1345	845	1
8	1377	865	1
8	1409	885	1
8	1441	905	1
8	1473	925	1
8	1505	945	1
8	1537	965	1
8	1569	985	1
8	1601	1005	1
8	1633	1025	1
8	1665	1045	1
8	1697	1065	1
8	1729	1085	1
8	1761	1105	1
8	1793	1125	1
8	1825	1145	1
8	1857	1165	1
8	1889	1185	1
8	1921	1205	1
8	1953	1225	1
8	1985	1245	1
8	2017	1265	1
8	2049	1285	1
8	2081	1305	1
8	2113	1325	1
8	2145	1345	1
8	2177	1365	1
8	2209	1385	1
8	2241	1405	1
8	2273	1425	1
8	2305	1445	1
8	2337	1465	1
8	2369	1485	1
8	2401	1505	1
8	2433	1525	1
8	2465	1545	1
8	2497	1565	1
8	2529	1585	1
8	2561	1605	1
8	2593	1625	1
8	2625	1645	1
8	2657	1665	1
8	2689	1685	1
8	2721	1705	1
8	2753	1725	1
8	2785	1745	1
8	2817	1765	1
8	2849	1785	1
8	2881	1805	1
8	2913	1825	1
8	2945	1845	1
8	2977	1865	1
8	3009	1885	1
8	3041	1905	1
8	3073	1925	1
8	3105	1945	1
8	3137	1965	1
8	3169	1985	1
8	3201	2005	1
8	3233	2025	1
8	3265	2045	1
8	3297	2065	1
8	3329	2085	1
8	3361	2105	1
8	3393	2125	1
8	3425	2145	1
8	3457	2165	1
8	3489	2185	1
8	3521	2205	1
8	3553	2225	1
8	3585	2245	1
8	3617	2265	1
8	3649	2285	1
8	3681	2305	1
8	3713	2325	1
8	3745	2345	1
8	3777	2365	1
8	3852	2415	1
8	3863	2420	1
8	3873	2425	1
8	3907	2445	1
8	3939	2465	1
8	3971	2485	1
8	4003	2505	1
8	4035	2525	1
8	4067	2545	1
8	4099	2565	1
8	4131	2585	1
8	4163	2605	1
8	4195	2625	1
8	4226	2645	1
8	4263	2665	1
8	4293	2685	1
8	4325	2705	1
8	4357	2725	1
8	4389	2745	1
8	4421	2765	1
8	4453	2785	1
8	4485	2805	1
8	4517	2825	1
8	4549	2845	1
8	4581	2865	1
8	4613	2885	1
8	4645	2905	1
8	4677	2925	1
8	4709	2945	1
8	4741	2965	1
8	4773	2985	1
8	4805	3005	1
8	4837	3025	1
8	4869	3045	1
8	4901	3065	1
8	4933	3085	1
8	4965	3105	1
8	4997	3125	1
8	5029	3145	1
8	5061	3165	1
8	5093	3185	1
8	5125	3205	1
8	5157	3225	1
8	5189	3245	1
8	5221	3265	1
8	5253	3285	1
8	5285	3305	1
8	5317	3325	1
8	5349	3345	1
8	5381	3365	1
8	5413	3385	1
8	5445	3405	1
8	5477	3425	1
8	5509	3445	1
8	5541	3465	1
8	5573	3485	1
8	5605	3505	1
8	5637	3525	1
8	5669	3545	1
8	5701	3565	1
8	5733	3585	1
9	33	25	5
9	65	45	5
9	97	65	5
9	129	85	5
9	161	105	5
9	193	125	5
9	225	145	5
9	257	165	5
9	289	185	5
9	321	205	5
9	353	225	5
9	385	245	5
9	417	265	5
9	449	285	5
9	481	305	5
9	513	325	5
9	545	345	5
9	577	365	5
9	609	385	5
9	641	405	5
9	673	425	5
9	705	445	5
9	737	465	5
9	769	485	5
9	801	505	5
9	833	525	5
9	865	545	5
9	897	565	5
9	929	585	5
9	961	605	5
9	993	625	5
9	1025	645	5
9	1057	665	5
9	1089	685	5
9	1121	705	5
9	1153	725	5
9	1185	745	5
9	1217	765	5
9	1249	785	5
9	1281	805	5
9	1313	825	5
9	1345	845	5
9	1377	865	5
9	1409	885	5
9	1441	905	5
9	1473	925	5
9	1505	945	5
9	1537	965	5
9	1569	985	5
9	1601	1005	5
9	1633	1025	5
9	1665	1045	5
9	1697	1065	5
9	1729	1085	5
9	1761	1105	5
9	1793	1125	5
9	1825	1145	5
9	1857	1165	5
9	1889	1185	5
9	1921	1205	5
9	1953	1225	5
9	1985	1245	5
9	2017	1265	5
9	2049	1285	5
9	2081	1305	5
9	2113	1325	5
9	2145	1345	5
9	2177	1365	5
9	2209	1385	5
9	2241	1405	5
9	2273	1425	5
9	2305	1445	5
9	2337	1465	5
9	2369	1485	5
9	2401	1505	5
9	2433	1525	5
9	2465	1545	5
9	2497	1565	5
9	2529	1585	5
9	2561	1605	5
9	2593	1625	5
9	2625	1645	5
9	2657	1665	5
9	2689	1685	5
9	2721	1705	5
9	2753	1725	5
9	2785	1745	5
9	2817	1765	5
9	2849	1785	5
9	2881	1805	5
9	2913	1825	5
9	2945	1845	5
9	2977	1865	5
9	3009	1885	5
9	3041	1905	5
9	3073	1925	5
9	3105	1945	5
9	3137	1965	5
9	3169	1985	5
9	3201	2005	5
9	3233	2025	5
9	3265	2045	5
9	3297	2065	5
9	3329	2085	5
9	3361	2105	5
9	3393	2125	5
9	3425	2145	5
9	3457	2165	5
9	3489	2185	5
9	3521	2205	5
9	3553	2225	5
9	3585	2245	5
9	3617	2265	5
9	3649	2285	5
9	3681	2305	5
9	3713	2325	5
9	3745	2345	5
9	3777	2365	5
9	3852	2415	35
9	3863	2420	20
9	3873	2425	5
9	3907	2445	5
9	3939	2465	5
9	3971	2485	5
9	4003	2505	5
9	4035	2525	5
9	4067	2545	5
9	4099	2565	5
9	4131	2585	5
9	4163	2605	5
9	4195	2625	5
9	4226	2645	5
9	4263	2665	5
9	4293	2685	5
9	4325	2705	5
9	4357	2725	5
9	4389	2745	5
9	4421	2765	5
9	4453	2785	5
9	4485	2805	5
9	4517	2825	5
9	4549	2845	5
9	4581	2865	5
9	4613	2885	5
9	4645	2905	5
9	4677	2925	5
9	4709	2945	5
9	4741	2965	5
9	4773	2985	5
9	4805	3005	5
9	4837	3025	5
9	4869	3045	5
9	4901	3065	5
9	4933	3085	5
9	4965	3105	5
9	4997	3125	5
9	5029	3145	5
9	5061	3165	5
9	5093	3185	5
9	5125	3205	5
9	5157	3225	5
9	5189	3245	5
9	5221	3265	5
9	5253	3285	5
9	5285	3305	5
9	5317	3325	5
9	5349	3345	5
9	5381	3365	5
9	5413	3385	5
9	5445	3405	5
9	5477	3425	5
9	5509	3445	5
9	5541	3465	5
9	5573	3485	5
9	5605	3505	5
9	5637	3525	5
9	5669	3545	5
9	5701	3565	5
9	5733	3585	5
10	33	25	0
10	65	45	0
10	97	65	0
10	129	85	0
10	161	105	0
10	193	125	0
10	225	145	0
10	257	165	0
10	289	185	0
10	321	205	0
10	353	225	0
10	385	245	0
10	417	265	0
10	449	285	0
10	481	305	0
10	513	325	0
10	545	345	0
10	577	365	0
10	609	385	0
10	641	405	0
10	673	425	0
10	705	445	0
10	737	465	0
10	769	485	0
10	801	505	0
10	833	525	0
10	865	545	0
10	897	565	0
10	929	585	0
10	961	605	0
10	993	625	0
10	1025	645	0
10	1057	665	0
10	1089	685	0
10	1121	705	0
10	1153	725	0
10	1185	745	0
10	1217	765	0
10	1249	785	0
10	1281	805	0
10	1313	825	0
10	1345	845	0
10	1377	865	0
10	1409	885	0
10	1441	905	0
10	1473	925	0
10	1505	945	0
10	1537	965	0
10	1569	985	0
10	1601	1005	0
10	1633	1025	0
10	1665	1045	0
10	1697	1065	0
10	1729	1085	0
10	1761	1105	0
10	1793	1125	0
10	1825	1145	0
10	1857	1165	0
10	1889	1185	0
10	1921	1205	0
10	1953	1225	0
10	1985	1245	0
10	2017	1265	0
10	2049	1285	0
10	2081	1305	0
10	2113	1325	0
10	2145	1345	0
10	2177	1365	0
10	2209	1385	0
10	2241	1405	0
10	2273	1425	0
10	2305	1445	0
10	2337	1465	0
10	2369	1485	0
10	2401	1505	0
10	2433	1525	0
10	2465	1545	0
10	2497	1565	0
10	2529	1585	0
10	2561	1605	0
10	2593	1625	0
10	2625	1645	0
10	2657	1665	0
10	2689	1685	0
10	2721	1705	0
10	2753	1725	0
10	2785	1745	0
10	2817	1765	0
10	2849	1785	0
10	2881	1805	0
10	2913	1825	0
10	2945	1845	0
10	2977	1865	0
10	3009	1885	0
10	3041	1905	0
10	3073	1925	0
10	3105	1945	0
10	3137	1965	0
10	3169	1985	0
10	3201	2005	0
10	3233	2025	0
10	3265	2045	0
10	3297	2065	0
10	3329	2085	0
10	3361	2105	0
10	3393	2125	0
10	3425	2145	0
10	3457	2165	0
10	3489	2185	0
10	3521	2205	0
10	3553	2225	0
10	3585	2245	0
10	3617	2265	0
10	3649	2285	0
10	3681	2305	0
10	3713	2325	0
10	3745	2345	0
10	3777	2365	0
10	3852	2415	1
10	3863	2420	1
10	3873	2425	0
10	3907	2445	0
10	3939	2465	0
10	3971	2485	0
10	4003	2505	0
10	4035	2525	0
10	4067	2545	0
10	4099	2565	0
10	4131	2585	0
10	4163	2605	0
10	4195	2625	0
10	4226	2645	0
10	4263	2665	0
10	4293	2685	0
10	4325	2705	0
10	4357	2725	0
10	4389	2745	0
10	4421	2765	0
10	4453	2785	0
10	4485	2805	0
10	4517	2825	0
10	4549	2845	0
10	4581	2865	0
10	4613	2885	0
10	4645	2905	0
10	4677	2925	0
10	4709	2945	0
10	4741	2965	0
10	4773	2985	0
10	4805	3005	0
10	4837	3025	0
10	4869	3045	0
10	4901	3065	0
10	4933	3085	0
10	4965	3105	0
10	4997	3125	0
10	5029	3145	0
10	5061	3165	0
10	5093	3185	0
10	5125	3205	0
10	5157	3225	0
10	5189	3245	0
10	5221	3265	0
10	5253	3285	0
10	5285	3305	0
10	5317	3325	0
10	5349	3345	0
10	5381	3365	0
10	5413	3385	0
10	5445	3405	0
10	5477	3425	0
10	5509	3445	0
10	5541	3465	0
10	5573	3485	0
10	5605	3505	0
10	5637	3525	0
10	5669	3545	0
10	5701	3565	0
10	5733	3585	0
11	35	25	1
11	67	45	1
11	99	65	1
11	131	85	1
11	163	105	1
11	195	125	1
11	227	145	1
11	259	165	1
11	291	185	1
11	323	205	1
11	355	225	1
11	387	245	1
11	419	265	1
11	451	285	1
11	483	305	1
11	515	325	1
11	547	345	1
11	579	365	1
11	611	385	1
11	643	405	1
11	675	425	1
11	707	445	1
11	739	465	1
11	771	485	1
11	803	505	1
11	835	525	1
11	867	545	1
11	899	565	1
11	931	585	1
11	963	605	1
11	995	625	1
11	1027	645	1
11	1059	665	1
11	1091	685	1
11	1123	705	1
11	1155	725	1
11	1187	745	1
11	1219	765	1
11	1251	785	1
11	1283	805	1
11	1315	825	1
11	1347	845	1
11	1379	865	1
11	1411	885	1
11	1443	905	1
11	1475	925	1
11	1507	945	1
11	1539	965	1
11	1571	985	1
11	1603	1005	1
11	1635	1025	1
11	1667	1045	1
11	1699	1065	1
11	1731	1085	1
11	1763	1105	1
11	1795	1125	1
11	1827	1145	1
11	1859	1165	1
11	1891	1185	1
11	1923	1205	1
11	1955	1225	1
11	1987	1245	1
11	2019	1265	1
11	2051	1285	1
11	2083	1305	1
11	2115	1325	1
11	2147	1345	1
11	2179	1365	1
11	2211	1385	1
11	2243	1405	1
11	2275	1425	1
11	2307	1445	1
11	2339	1465	1
11	2371	1485	1
11	2403	1505	1
11	2435	1525	1
11	2467	1545	1
11	2499	1565	1
11	2531	1585	1
11	2563	1605	1
11	2595	1625	1
11	2627	1645	1
11	2659	1665	1
11	2691	1685	1
11	2723	1705	1
11	2755	1725	1
11	2787	1745	1
11	2819	1765	1
11	2851	1785	1
11	2883	1805	1
11	2915	1825	1
11	2947	1845	1
11	2979	1865	1
11	3011	1885	1
11	3043	1905	1
11	3075	1925	1
11	3107	1945	1
11	3139	1965	1
11	3171	1985	1
11	3203	2005	1
11	3235	2025	1
11	3267	2045	1
11	3299	2065	1
11	3331	2085	1
11	3363	2105	1
11	3395	2125	1
11	3427	2145	1
11	3459	2165	1
11	3491	2185	1
11	3523	2205	1
11	3555	2225	1
11	3587	2245	1
11	3619	2265	1
11	3651	2285	1
11	3683	2305	1
11	3715	2325	1
11	3747	2345	1
11	3779	2365	1
11	3809	2385	1
11	3838	2405	1
11	3877	2425	1
11	3909	2445	1
11	3941	2465	1
11	3973	2485	1
11	4005	2505	1
11	4037	2525	1
11	4069	2545	1
11	4101	2565	1
11	4133	2585	1
11	4165	2605	1
11	4197	2625	1
11	4250	2660	1
11	4261	2665	1
11	4295	2685	1
11	4327	2705	1
11	4359	2725	1
11	4391	2745	1
11	4423	2765	1
11	4455	2785	1
11	4487	2805	1
11	4519	2825	1
11	4551	2845	1
11	4583	2865	1
11	4615	2885	1
11	4647	2905	1
11	4679	2925	1
11	4711	2945	1
11	4743	2965	1
11	4775	2985	1
11	4807	3005	1
11	4839	3025	1
11	4871	3045	1
11	4903	3065	1
11	4935	3085	1
11	4967	3105	1
11	4999	3125	1
11	5031	3145	1
11	5063	3165	1
11	5095	3185	1
11	5127	3205	1
11	5159	3225	1
11	5191	3245	1
11	5223	3265	1
11	5255	3285	1
11	5287	3305	1
11	5319	3325	1
11	5351	3345	1
11	5383	3365	1
11	5415	3385	1
11	5447	3405	1
11	5479	3425	1
11	5511	3445	1
11	5543	3465	1
11	5575	3485	1
11	5607	3505	1
11	5639	3525	1
11	5671	3545	1
11	5703	3565	1
11	5735	3585	1
12	35	25	5
12	67	45	5
12	99	65	5
12	131	85	5
12	163	105	5
12	195	125	5
12	227	145	5
12	259	165	5
12	291	185	5
12	323	205	5
12	355	225	5
12	387	245	5
12	419	265	5
12	451	285	5
12	483	305	5
12	515	325	5
12	547	345	5
12	579	365	5
12	611	385	5
12	643	405	5
12	675	425	5
12	707	445	5
12	739	465	5
12	771	485	5
12	803	505	5
12	835	525	5
12	867	545	5
12	899	565	5
12	931	585	5
12	963	605	5
12	995	625	5
12	1027	645	5
12	1059	665	5
12	1091	685	5
12	1123	705	5
12	1155	725	5
12	1187	745	5
12	1219	765	5
12	1251	785	5
12	1283	805	5
12	1315	825	5
12	1347	845	5
12	1379	865	5
12	1411	885	5
12	1443	905	5
12	1475	925	5
12	1507	945	5
12	1539	965	5
12	1571	985	5
12	1603	1005	5
12	1635	1025	5
12	1667	1045	5
12	1699	1065	5
12	1731	1085	5
12	1763	1105	5
12	1795	1125	5
12	1827	1145	5
12	1859	1165	5
12	1891	1185	5
12	1923	1205	5
12	1955	1225	5
12	1987	1245	5
12	2019	1265	5
12	2051	1285	5
12	2083	1305	5
12	2115	1325	5
12	2147	1345	5
12	2179	1365	5
12	2211	1385	5
12	2243	1405	5
12	2275	1425	5
12	2307	1445	5
12	2339	1465	5
12	2371	1485	5
12	2403	1505	5
12	2435	1525	5
12	2467	1545	5
12	2499	1565	5
12	2531	1585	5
12	2563	1605	5
12	2595	1625	5
12	2627	1645	5
12	2659	1665	5
12	2691	1685	5
12	2723	1705	5
12	2755	1725	5
12	2787	1745	5
12	2819	1765	5
12	2851	1785	5
12	2883	1805	5
12	2915	1825	5
12	2947	1845	5
12	2979	1865	5
12	3011	1885	5
12	3043	1905	5
12	3075	1925	5
12	3107	1945	5
12	3139	1965	5
12	3171	1985	5
12	3203	2005	5
12	3235	2025	5
12	3267	2045	5
12	3299	2065	5
12	3331	2085	5
12	3363	2105	5
12	3395	2125	5
12	3427	2145	5
12	3459	2165	5
12	3491	2185	5
12	3523	2205	5
12	3555	2225	5
12	3587	2245	5
12	3619	2265	5
12	3651	2285	5
12	3683	2305	5
12	3715	2325	5
12	3747	2345	5
12	3779	2365	5
12	3809	2385	5
12	3838	2405	5
12	3877	2425	5
12	3909	2445	5
12	3941	2465	5
12	3973	2485	5
12	4005	2505	5
12	4037	2525	5
12	4069	2545	5
12	4101	2565	5
12	4133	2585	5
12	4165	2605	5
12	4197	2625	5
12	4250	2660	20
12	4261	2665	5
12	4295	2685	5
12	4327	2705	5
12	4359	2725	5
12	4391	2745	5
12	4423	2765	5
12	4455	2785	5
12	4487	2805	5
12	4519	2825	5
12	4551	2845	5
12	4583	2865	5
12	4615	2885	5
12	4647	2905	5
12	4679	2925	5
12	4711	2945	5
12	4743	2965	5
12	4775	2985	5
12	4807	3005	5
12	4839	3025	5
12	4871	3045	5
12	4903	3065	5
12	4935	3085	5
12	4967	3105	5
12	4999	3125	5
12	5031	3145	5
12	5063	3165	5
12	5095	3185	5
12	5127	3205	5
12	5159	3225	5
12	5191	3245	5
12	5223	3265	5
12	5255	3285	5
12	5287	3305	5
12	5319	3325	5
12	5351	3345	5
12	5383	3365	5
12	5415	3385	5
12	5447	3405	5
12	5479	3425	5
12	5511	3445	5
12	5543	3465	5
12	5575	3485	5
12	5607	3505	5
12	5639	3525	5
12	5671	3545	5
12	5703	3565	5
12	5735	3585	5
13	35	25	0
13	67	45	0
13	99	65	0
13	131	85	0
13	163	105	0
13	195	125	0
13	227	145	0
13	259	165	0
13	291	185	0
13	323	205	0
13	355	225	0
13	387	245	0
13	419	265	0
13	451	285	0
13	483	305	0
13	515	325	0
13	547	345	0
13	579	365	0
13	611	385	0
13	643	405	0
13	675	425	0
13	707	445	0
13	739	465	0
13	771	485	0
13	803	505	0
13	835	525	0
13	867	545	0
13	899	565	0
13	931	585	0
13	963	605	0
13	995	625	0
13	1027	645	0
13	1059	665	0
13	1091	685	0
13	1123	705	0
13	1155	725	0
13	1187	745	0
13	1219	765	0
13	1251	785	0
13	1283	805	0
13	1315	825	0
13	1347	845	0
13	1379	865	0
13	1411	885	0
13	1443	905	0
13	1475	925	0
13	1507	945	0
13	1539	965	0
13	1571	985	0
13	1603	1005	0
13	1635	1025	0
13	1667	1045	0
13	1699	1065	0
13	1731	1085	0
13	1763	1105	0
13	1795	1125	0
13	1827	1145	0
13	1859	1165	0
13	1891	1185	0
13	1923	1205	0
13	1955	1225	0
13	1987	1245	0
13	2019	1265	0
13	2051	1285	0
13	2083	1305	0
13	2115	1325	0
13	2147	1345	0
13	2179	1365	0
13	2211	1385	0
13	2243	1405	0
13	2275	1425	0
13	2307	1445	0
13	2339	1465	0
13	2371	1485	0
13	2403	1505	0
13	2435	1525	0
13	2467	1545	0
13	2499	1565	0
13	2531	1585	0
13	2563	1605	0
13	2595	1625	0
13	2627	1645	0
13	2659	1665	0
13	2691	1685	0
13	2723	1705	0
13	2755	1725	0
13	2787	1745	0
13	2819	1765	0
13	2851	1785	0
13	2883	1805	0
13	2915	1825	0
13	2947	1845	0
13	2979	1865	0
13	3011	1885	0
13	3043	1905	0
13	3075	1925	0
13	3107	1945	0
13	3139	1965	0
13	3171	1985	0
13	3203	2005	0
13	3235	2025	0
13	3267	2045	0
13	3299	2065	0
13	3331	2085	0
13	3363	2105	0
13	3395	2125	0
13	3427	2145	0
13	3459	2165	0
13	3491	2185	0
13	3523	2205	0
13	3555	2225	0
13	3587	2245	0
13	3619	2265	0
13	3651	2285	0
13	3683	2305	0
13	3715	2325	0
13	3747	2345	0
13	3779	2365	0
13	3809	2385	0
13	3838	2405	0
13	3877	2425	0
13	3909	2445	0
13	3941	2465	0
13	3973	2485	0
13	4005	2505	0
13	4037	2525	0
13	4069	2545	0
13	4101	2565	0
13	4133	2585	0
13	4165	2605	0
13	4197	2625	0
13	4250	2660	1
13	4261	2665	0
13	4295	2685	0
13	4327	2705	0
13	4359	2725	0
13	4391	2745	0
13	4423	2765	0
13	4455	2785	0
13	4487	2805	0
13	4519	2825	0
13	4551	2845	0
13	4583	2865	0
13	4615	2885	0
13	4647	2905	0
13	4679	2925	0
13	4711	2945	0
13	4743	2965	0
13	4775	2985	0
13	4807	3005	0
13	4839	3025	0
13	4871	3045	0
13	4903	3065	0
13	4935	3085	0
13	4967	3105	0
13	4999	3125	0
13	5031	3145	0
13	5063	3165	0
13	5095	3185	0
13	5127	3205	0
13	5159	3225	0
13	5191	3245	0
13	5223	3265	0
13	5255	3285	0
13	5287	3305	0
13	5319	3325	0
13	5351	3345	0
13	5383	3365	0
13	5415	3385	0
13	5447	3405	0
13	5479	3425	0
13	5511	3445	0
13	5543	3465	0
13	5575	3485	0
13	5607	3505	0
13	5639	3525	0
13	5671	3545	0
13	5703	3565	0
13	5735	3585	0
14	37	25	1
14	69	45	1
14	101	65	1
14	133	85	1
14	165	105	1
14	197	125	1
14	229	145	1
14	261	165	1
14	293	185	1
14	325	205	1
14	357	225	1
14	389	245	1
14	421	265	1
14	453	285	1
14	485	305	1
14	517	325	1
14	549	345	1
14	581	365	1
14	613	385	1
14	645	405	1
14	677	425	1
14	709	445	1
14	741	465	1
14	773	485	1
14	805	505	1
14	837	525	1
14	869	545	1
14	901	565	1
14	933	585	1
14	965	605	1
14	997	625	1
14	1029	645	1
14	1061	665	1
14	1093	685	1
14	1125	705	1
14	1157	725	1
14	1189	745	1
14	1221	765	1
14	1253	785	1
14	1285	805	1
14	1317	825	1
14	1349	845	1
14	1381	865	1
14	1413	885	1
14	1445	905	1
14	1477	925	1
14	1509	945	1
14	1541	965	1
14	1573	985	1
14	1605	1005	1
14	1637	1025	1
14	1669	1045	1
14	1701	1065	1
14	1733	1085	1
14	1765	1105	1
14	1797	1125	1
14	1829	1145	1
14	1861	1165	1
14	1893	1185	1
14	1925	1205	1
14	1957	1225	1
14	1989	1245	1
14	2021	1265	1
14	2053	1285	1
14	2085	1305	1
14	2117	1325	1
14	2149	1345	1
14	2181	1365	1
14	2213	1385	1
14	2245	1405	1
14	2277	1425	1
14	2309	1445	1
14	2341	1465	1
14	2373	1485	1
14	2405	1505	1
14	2437	1525	1
14	2469	1545	1
14	2501	1565	1
14	2533	1585	1
14	2565	1605	1
14	2597	1625	1
14	2629	1645	1
14	2661	1665	1
14	2693	1685	1
14	2725	1705	1
14	2757	1725	1
14	2789	1745	1
14	2821	1765	1
14	2853	1785	1
14	2885	1805	1
14	2917	1825	1
14	2949	1845	1
14	2981	1865	1
14	3013	1885	1
14	3045	1905	1
14	3077	1925	1
14	3109	1945	1
14	3141	1965	1
14	3173	1985	1
14	3205	2005	1
14	3237	2025	1
14	3269	2045	1
14	3301	2065	1
14	3333	2085	1
14	3365	2105	1
14	3397	2125	1
14	3429	2145	1
14	3461	2165	1
14	3493	2185	1
14	3525	2205	1
14	3557	2225	1
14	3589	2245	1
14	3621	2265	1
14	3653	2285	1
14	3685	2305	1
14	3717	2325	1
14	3749	2345	1
14	3781	2365	1
14	3811	2385	1
14	3840	2405	1
14	3879	2425	1
14	3911	2445	1
14	3943	2465	1
14	3975	2485	1
14	4007	2505	1
14	4039	2525	1
14	4071	2545	1
14	4103	2565	1
14	4135	2585	1
14	4167	2605	1
14	4199	2625	1
14	4229	2645	1
14	4265	2665	1
14	4297	2685	1
14	4329	2705	1
14	4361	2725	1
14	4393	2745	1
14	4425	2765	1
14	4457	2785	1
14	4489	2805	1
14	4521	2825	1
14	4553	2845	1
14	4585	2865	1
14	4617	2885	1
14	4649	2905	1
14	4681	2925	1
14	4713	2945	1
14	4745	2965	1
14	4777	2985	1
14	4809	3005	1
14	4841	3025	1
14	4873	3045	1
14	4905	3065	1
14	4937	3085	1
14	4969	3105	1
14	5001	3125	1
14	5033	3145	1
14	5065	3165	1
14	5097	3185	1
14	5129	3205	1
14	5161	3225	1
14	5193	3245	1
14	5225	3265	1
14	5257	3285	1
14	5289	3305	1
14	5321	3325	1
14	5353	3345	1
14	5385	3365	1
14	5417	3385	1
14	5449	3405	1
14	5481	3425	1
14	5513	3445	1
14	5545	3465	1
14	5577	3485	1
14	5609	3505	1
14	5641	3525	1
14	5673	3545	1
14	5705	3565	1
14	5737	3585	1
15	37	25	5
15	69	45	5
15	101	65	5
15	133	85	5
15	165	105	5
15	197	125	5
15	229	145	5
15	261	165	5
15	293	185	5
15	325	205	5
15	357	225	5
15	389	245	5
15	421	265	5
15	453	285	5
15	485	305	5
15	517	325	5
15	549	345	5
15	581	365	5
15	613	385	5
15	645	405	5
15	677	425	5
15	709	445	5
15	741	465	5
15	773	485	5
15	805	505	5
15	837	525	5
15	869	545	5
15	901	565	5
15	933	585	5
15	965	605	5
15	997	625	5
15	1029	645	5
15	1061	665	5
15	1093	685	5
15	1125	705	5
15	1157	725	5
15	1189	745	5
15	1221	765	5
15	1253	785	5
15	1285	805	5
15	1317	825	5
15	1349	845	5
15	1381	865	5
15	1413	885	5
15	1445	905	5
15	1477	925	5
15	1509	945	5
15	1541	965	5
15	1573	985	5
15	1605	1005	5
15	1637	1025	5
15	1669	1045	5
15	1701	1065	5
15	1733	1085	5
15	1765	1105	5
15	1797	1125	5
15	1829	1145	5
15	1861	1165	5
15	1893	1185	5
15	1925	1205	5
15	1957	1225	5
15	1989	1245	5
15	2021	1265	5
15	2053	1285	5
15	2085	1305	5
15	2117	1325	5
15	2149	1345	5
15	2181	1365	5
15	2213	1385	5
15	2245	1405	5
15	2277	1425	5
15	2309	1445	5
15	2341	1465	5
15	2373	1485	5
15	2405	1505	5
15	2437	1525	5
15	2469	1545	5
15	2501	1565	5
15	2533	1585	5
15	2565	1605	5
15	2597	1625	5
15	2629	1645	5
15	2661	1665	5
15	2693	1685	5
15	2725	1705	5
15	2757	1725	5
15	2789	1745	5
15	2821	1765	5
15	2853	1785	5
15	2885	1805	5
15	2917	1825	5
15	2949	1845	5
15	2981	1865	5
15	3013	1885	5
15	3045	1905	5
15	3077	1925	5
15	3109	1945	5
15	3141	1965	5
15	3173	1985	5
15	3205	2005	5
15	3237	2025	5
15	3269	2045	5
15	3301	2065	5
15	3333	2085	5
15	3365	2105	5
15	3397	2125	5
15	3429	2145	5
15	3461	2165	5
15	3493	2185	5
15	3525	2205	5
15	3557	2225	5
15	3589	2245	5
15	3621	2265	5
15	3653	2285	5
15	3685	2305	5
15	3717	2325	5
15	3749	2345	5
15	3781	2365	5
15	3811	2385	5
15	3840	2405	5
15	3879	2425	5
15	3911	2445	5
15	3943	2465	5
15	3975	2485	5
15	4007	2505	5
15	4039	2525	5
15	4071	2545	5
15	4103	2565	5
15	4135	2585	5
15	4167	2605	5
15	4199	2625	5
15	4229	2645	5
15	4265	2665	5
15	4297	2685	5
15	4329	2705	5
15	4361	2725	5
15	4393	2745	5
15	4425	2765	5
15	4457	2785	5
15	4489	2805	5
15	4521	2825	5
15	4553	2845	5
15	4585	2865	5
15	4617	2885	5
15	4649	2905	5
15	4681	2925	5
15	4713	2945	5
15	4745	2965	5
15	4777	2985	5
15	4809	3005	5
15	4841	3025	5
15	4873	3045	5
15	4905	3065	5
15	4937	3085	5
15	4969	3105	5
15	5001	3125	5
15	5033	3145	5
15	5065	3165	5
15	5097	3185	5
15	5129	3205	5
15	5161	3225	5
15	5193	3245	5
15	5225	3265	5
15	5257	3285	5
15	5289	3305	5
15	5321	3325	5
15	5353	3345	5
15	5385	3365	5
15	5417	3385	5
15	5449	3405	5
15	5481	3425	5
15	5513	3445	5
15	5545	3465	5
15	5577	3485	5
15	5609	3505	5
15	5641	3525	5
15	5673	3545	5
15	5705	3565	5
15	5737	3585	5
16	37	25	0
16	69	45	0
16	101	65	0
16	133	85	0
16	165	105	0
16	197	125	0
16	229	145	0
16	261	165	0
16	293	185	0
16	325	205	0
16	357	225	0
16	389	245	0
16	421	265	0
16	453	285	0
16	485	305	0
16	517	325	0
16	549	345	0
16	581	365	0
16	613	385	0
16	645	405	0
16	677	425	0
16	709	445	0
16	741	465	0
16	773	485	0
16	805	505	0
16	837	525	0
16	869	545	0
16	901	565	0
16	933	585	0
16	965	605	0
16	997	625	0
16	1029	645	0
16	1061	665	0
16	1093	685	0
16	1125	705	0
16	1157	725	0
16	1189	745	0
16	1221	765	0
16	1253	785	0
16	1285	805	0
16	1317	825	0
16	1349	845	0
16	1381	865	0
16	1413	885	0
16	1445	905	0
16	1477	925	0
16	1509	945	0
16	1541	965	0
16	1573	985	0
16	1605	1005	0
16	1637	1025	0
16	1669	1045	0
16	1701	1065	0
16	1733	1085	0
16	1765	1105	0
16	1797	1125	0
16	1829	1145	0
16	1861	1165	0
16	1893	1185	0
16	1925	1205	0
16	1957	1225	0
16	1989	1245	0
16	2021	1265	0
16	2053	1285	0
16	2085	1305	0
16	2117	1325	0
16	2149	1345	0
16	2181	1365	0
16	2213	1385	0
16	2245	1405	0
16	2277	1425	0
16	2309	1445	0
16	2341	1465	0
16	2373	1485	0
16	2405	1505	0
16	2437	1525	0
16	2469	1545	0
16	2501	1565	0
16	2533	1585	0
16	2565	1605	0
16	2597	1625	0
16	2629	1645	0
16	2661	1665	0
16	2693	1685	0
16	2725	1705	0
16	2757	1725	0
16	2789	1745	0
16	2821	1765	0
16	2853	1785	0
16	2885	1805	0
16	2917	1825	0
16	2949	1845	0
16	2981	1865	0
16	3013	1885	0
16	3045	1905	0
16	3077	1925	0
16	3109	1945	0
16	3141	1965	0
16	3173	1985	0
16	3205	2005	0
16	3237	2025	0
16	3269	2045	0
16	3301	2065	0
16	3333	2085	0
16	3365	2105	0
16	3397	2125	0
16	3429	2145	0
16	3461	2165	0
16	3493	2185	0
16	3525	2205	0
16	3557	2225	0
16	3589	2245	0
16	3621	2265	0
16	3653	2285	0
16	3685	2305	0
16	3717	2325	0
16	3749	2345	0
16	3781	2365	0
16	3811	2385	0
16	3840	2405	0
16	3879	2425	0
16	3911	2445	0
16	3943	2465	0
16	3975	2485	0
16	4007	2505	0
16	4039	2525	0
16	4071	2545	0
16	4103	2565	0
16	4135	2585	0
16	4167	2605	0
16	4199	2625	0
16	4229	2645	0
16	4265	2665	0
16	4297	2685	0
16	4329	2705	0
16	4361	2725	0
16	4393	2745	0
16	4425	2765	0
16	4457	2785	0
16	4489	2805	0
16	4521	2825	0
16	4553	2845	0
16	4585	2865	0
16	4617	2885	0
16	4649	2905	0
16	4681	2925	0
16	4713	2945	0
16	4745	2965	0
16	4777	2985	0
16	4809	3005	0
16	4841	3025	0
16	4873	3045	0
16	4905	3065	0
16	4937	3085	0
16	4969	3105	0
16	5001	3125	0
16	5033	3145	0
16	5065	3165	0
16	5097	3185	0
16	5129	3205	0
16	5161	3225	0
16	5193	3245	0
16	5225	3265	0
16	5257	3285	0
16	5289	3305	0
16	5321	3325	0
16	5353	3345	0
16	5385	3365	0
16	5417	3385	0
16	5449	3405	0
16	5481	3425	0
16	5513	3445	0
16	5545	3465	0
16	5577	3485	0
16	5609	3505	0
16	5641	3525	0
16	5673	3545	0
16	5705	3565	0
16	5737	3585	0

