version 2
run ConsistencyTest2a-0-20210119-12:22:15-5246
attr configname ConsistencyTest2a
attr datetime 20210119-12:22:15
attr experiment ConsistencyTest2a
attr inifile omnetpp.ini
attr iterationvars ""
attr iterationvarsf ""
attr measurement ""
attr network slottedNetwork
attr processid 5246
attr repetition 0
attr replication #0
attr resultdir results
attr runnumber 0
attr seedset 0
param **.numTransmitters 2
param **.numChannels 500
param **.sendProbability 1
param **.expMean 5s
param **.timeSlotSize 10s
param **.thresh 20s
param **.deterministicInterarrivalTime true
param **.numTransmitters 1
param **.numChannels 1
param **.sendProbability 1
param **.expMean 5s
param **.timeSlotSize 5s
param **.thresh 20s
param **.deterministicInterarrivalTime false

vector 0 slottedNetwork.transmitters[0] numPacketCreated:vector ETV
attr source numPacketCreatedSignal
vector 1 slottedNetwork.transmitters[1] numPacketCreated:vector ETV
attr source numPacketCreatedSignal
vector 2 slottedNetwork.ch throughput:vector ETV
attr source throughputSignal
vector 3 slottedNetwork.receivers[0] numPacketReceived:vector ETV
attr source numPacketReceivedSignal
vector 4 slottedNetwork.receivers[0] responseTime:vector ETV
attr source responseTimeSignal
vector 5 slottedNetwork.receivers[0] threshold:vector ETV
attr source thresholdSignal
vector 6 slottedNetwork.receivers[1] numPacketReceived:vector ETV
attr source numPacketReceivedSignal
vector 7 slottedNetwork.receivers[1] responseTime:vector ETV
attr source responseTimeSignal
vector 8 slottedNetwork.receivers[1] threshold:vector ETV
attr source thresholdSignal
0	1	5	1
0	4	10	1
0	10	15	1
0	13	20	1
0	21	25	1
0	24	30	1
0	32	35	1
0	35	40	1
0	43	45	1
0	46	50	1
0	54	55	1
0	57	60	1
0	65	65	1
0	68	70	1
0	76	75	1
0	79	80	1
0	87	85	1
0	90	90	1
0	98	95	1
0	101	100	1
0	109	105	1
0	112	110	1
0	120	115	1
0	123	120	1
0	131	125	1
0	134	130	1
0	142	135	1
0	145	140	1
0	153	145	1
0	156	150	1
0	164	155	1
0	167	160	1
0	175	165	1
0	178	170	1
0	186	175	1
0	189	180	1
0	197	185	1
0	200	190	1
0	208	195	1
0	211	200	1
0	219	205	1
0	222	210	1
0	230	215	1
0	233	220	1
0	241	225	1
0	244	230	1
0	252	235	1
0	255	240	1
0	263	245	1
0	266	250	1
0	274	255	1
0	277	260	1
0	285	265	1
0	288	270	1
0	296	275	1
0	299	280	1
0	307	285	1
0	310	290	1
0	318	295	1
0	321	300	1
0	329	305	1
0	332	310	1
0	340	315	1
0	343	320	1
0	351	325	1
0	354	330	1
0	362	335	1
0	365	340	1
0	373	345	1
0	376	350	1
0	384	355	1
0	387	360	1
0	395	365	1
0	398	370	1
0	406	375	1
0	409	380	1
0	417	385	1
0	420	390	1
0	428	395	1
0	431	400	1
0	439	405	1
0	442	410	1
0	450	415	1
0	453	420	1
0	461	425	1
0	464	430	1
0	472	435	1
0	475	440	1
0	483	445	1
0	486	450	1
0	494	455	1
0	497	460	1
0	505	465	1
0	508	470	1
0	516	475	1
0	519	480	1
0	527	485	1
0	530	490	1
0	538	495	1
0	541	500	1
0	549	505	1
0	552	510	1
0	560	515	1
0	563	520	1
0	571	525	1
0	574	530	1
0	582	535	1
0	585	540	1
0	593	545	1
0	596	550	1
0	604	555	1
0	607	560	1
0	615	565	1
0	618	570	1
0	626	575	1
0	629	580	1
0	637	585	1
0	640	590	1
0	648	595	1
0	651	600	1
0	659	605	1
0	662	610	1
0	670	615	1
0	673	620	1
0	681	625	1
0	684	630	1
0	692	635	1
0	695	640	1
0	703	645	1
0	706	650	1
0	714	655	1
0	717	660	1
0	725	665	1
0	728	670	1
0	736	675	1
0	739	680	1
0	747	685	1
0	750	690	1
0	758	695	1
0	761	700	1
0	769	705	1
0	772	710	1
0	780	715	1
0	783	720	1
0	791	725	1
0	794	730	1
0	802	735	1
0	805	740	1
0	813	745	1
0	816	750	1
0	824	755	1
0	827	760	1
0	835	765	1
0	838	770	1
0	846	775	1
0	849	780	1
0	857	785	1
0	860	790	1
0	868	795	1
0	871	800	1
0	879	805	1
0	882	810	1
0	890	815	1
0	893	820	1
0	901	825	1
0	904	830	1
0	912	835	1
0	915	840	1
0	923	845	1
0	926	850	1
0	934	855	1
0	937	860	1
0	945	865	1
0	948	870	1
0	956	875	1
0	959	880	1
0	967	885	1
0	970	890	1
0	978	895	1
0	981	900	1
0	989	905	1
0	992	910	1
0	1000	915	1
0	1003	920	1
0	1011	925	1
0	1014	930	1
0	1022	935	1
0	1025	940	1
0	1033	945	1
0	1036	950	1
0	1044	955	1
0	1047	960	1
0	1055	965	1
0	1058	970	1
0	1066	975	1
0	1069	980	1
0	1077	985	1
0	1080	990	1
0	1088	995	1
0	1091	1000	1
0	1099	1005	1
0	1102	1010	1
0	1110	1015	1
0	1113	1020	1
0	1121	1025	1
0	1124	1030	1
0	1132	1035	1
0	1135	1040	1
0	1143	1045	1
0	1146	1050	1
0	1154	1055	1
0	1157	1060	1
0	1165	1065	1
0	1168	1070	1
0	1176	1075	1
0	1179	1080	1
0	1187	1085	1
0	1190	1090	1
0	1198	1095	1
0	1201	1100	1
0	1209	1105	1
0	1212	1110	1
0	1220	1115	1
0	1223	1120	1
0	1231	1125	1
0	1234	1130	1
0	1242	1135	1
0	1245	1140	1
0	1253	1145	1
0	1256	1150	1
0	1264	1155	1
0	1267	1160	1
0	1275	1165	1
0	1278	1170	1
0	1286	1175	1
0	1289	1180	1
0	1297	1185	1
0	1300	1190	1
0	1308	1195	1
0	1311	1200	1
0	1319	1205	1
0	1322	1210	1
0	1330	1215	1
0	1333	1220	1
0	1341	1225	1
0	1344	1230	1
0	1352	1235	1
0	1355	1240	1
0	1363	1245	1
0	1366	1250	1
0	1374	1255	1
0	1377	1260	1
0	1385	1265	1
0	1388	1270	1
0	1396	1275	1
0	1399	1280	1
0	1407	1285	1
0	1410	1290	1
0	1418	1295	1
0	1421	1300	1
0	1429	1305	1
0	1432	1310	1
0	1440	1315	1
0	1443	1320	1
0	1451	1325	1
0	1454	1330	1
0	1462	1335	1
0	1465	1340	1
0	1473	1345	1
0	1476	1350	1
0	1484	1355	1
0	1487	1360	1
0	1495	1365	1
0	1498	1370	1
0	1506	1375	1
0	1509	1380	1
0	1517	1385	1
0	1520	1390	1
0	1528	1395	1
0	1531	1400	1
0	1539	1405	1
0	1542	1410	1
0	1550	1415	1
0	1553	1420	1
0	1561	1425	1
0	1564	1430	1
0	1572	1435	1
0	1575	1440	1
0	1583	1445	1
0	1586	1450	1
0	1594	1455	1
0	1597	1460	1
0	1605	1465	1
0	1608	1470	1
0	1616	1475	1
0	1619	1480	1
0	1627	1485	1
0	1630	1490	1
0	1638	1495	1
0	1641	1500	1
0	1649	1505	1
0	1652	1510	1
0	1660	1515	1
0	1663	1520	1
0	1671	1525	1
0	1674	1530	1
0	1682	1535	1
0	1685	1540	1
0	1693	1545	1
0	1696	1550	1
0	1704	1555	1
0	1707	1560	1
0	1715	1565	1
0	1718	1570	1
0	1726	1575	1
0	1729	1580	1
0	1737	1585	1
0	1740	1590	1
0	1748	1595	1
0	1751	1600	1
0	1759	1605	1
0	1762	1610	1
0	1770	1615	1
0	1773	1620	1
0	1781	1625	1
0	1784	1630	1
0	1792	1635	1
0	1795	1640	1
0	1803	1645	1
0	1806	1650	1
0	1814	1655	1
0	1817	1660	1
0	1825	1665	1
0	1828	1670	1
0	1836	1675	1
0	1839	1680	1
0	1847	1685	1
0	1850	1690	1
0	1858	1695	1
0	1861	1700	1
0	1869	1705	1
0	1872	1710	1
0	1880	1715	1
0	1883	1720	1
0	1891	1725	1
0	1894	1730	1
0	1902	1735	1
0	1905	1740	1
0	1913	1745	1
0	1916	1750	1
0	1924	1755	1
0	1927	1760	1
0	1935	1765	1
0	1938	1770	1
0	1946	1775	1
0	1949	1780	1
0	1957	1785	1
0	1960	1790	1
0	1968	1795	1
0	1971	1800	1
0	1979	1805	1
0	1982	1810	1
0	1990	1815	1
0	1993	1820	1
0	2001	1825	1
0	2004	1830	1
0	2012	1835	1
0	2015	1840	1
0	2023	1845	1
0	2026	1850	1
0	2034	1855	1
0	2037	1860	1
0	2045	1865	1
0	2048	1870	1
0	2056	1875	1
0	2059	1880	1
0	2067	1885	1
0	2070	1890	1
0	2078	1895	1
0	2081	1900	1
0	2089	1905	1
0	2092	1910	1
0	2100	1915	1
0	2103	1920	1
0	2111	1925	1
0	2114	1930	1
0	2122	1935	1
0	2125	1940	1
0	2133	1945	1
0	2136	1950	1
0	2144	1955	1
0	2147	1960	1
0	2155	1965	1
0	2158	1970	1
0	2166	1975	1
0	2169	1980	1
0	2177	1985	1
0	2180	1990	1
0	2188	1995	1
0	2191	2000	1
0	2199	2005	1
0	2202	2010	1
0	2210	2015	1
0	2213	2020	1
0	2221	2025	1
0	2224	2030	1
0	2232	2035	1
0	2235	2040	1
0	2243	2045	1
0	2246	2050	1
0	2254	2055	1
0	2257	2060	1
0	2265	2065	1
0	2268	2070	1
0	2276	2075	1
0	2279	2080	1
0	2287	2085	1
0	2290	2090	1
0	2298	2095	1
0	2301	2100	1
0	2309	2105	1
0	2312	2110	1
0	2320	2115	1
0	2323	2120	1
0	2331	2125	1
0	2334	2130	1
0	2342	2135	1
0	2345	2140	1
0	2353	2145	1
0	2356	2150	1
0	2364	2155	1
0	2367	2160	1
0	2375	2165	1
0	2378	2170	1
0	2386	2175	1
0	2389	2180	1
0	2397	2185	1
0	2400	2190	1
0	2408	2195	1
0	2411	2200	1
0	2419	2205	1
0	2422	2210	1
0	2430	2215	1
0	2433	2220	1
0	2441	2225	1
0	2444	2230	1
0	2452	2235	1
0	2455	2240	1
0	2463	2245	1
0	2466	2250	1
0	2474	2255	1
0	2477	2260	1
0	2485	2265	1
0	2488	2270	1
0	2496	2275	1
0	2499	2280	1
0	2507	2285	1
0	2510	2290	1
0	2518	2295	1
0	2521	2300	1
0	2529	2305	1
0	2532	2310	1
0	2540	2315	1
0	2543	2320	1
0	2551	2325	1
0	2554	2330	1
0	2562	2335	1
0	2565	2340	1
0	2573	2345	1
0	2576	2350	1
0	2584	2355	1
0	2587	2360	1
0	2595	2365	1
0	2598	2370	1
0	2606	2375	1
0	2609	2380	1
0	2613	2385	1
0	2616	2390	1
0	2620	2395	1
0	2623	2400	1
0	2627	2405	1
0	2630	2410	1
0	2635	2415	1
0	2638	2420	1
0	2644	2425	1
0	2647	2430	1
0	2654	2435	1
0	2657	2440	1
0	2665	2445	1
0	2668	2450	1
0	2676	2455	1
0	2679	2460	1
0	2687	2465	1
0	2690	2470	1
0	2698	2475	1
0	2701	2480	1
0	2709	2485	1
0	2712	2490	1
0	2720	2495	1
0	2723	2500	1
0	2731	2505	1
0	2734	2510	1
0	2742	2515	1
0	2745	2520	1
0	2753	2525	1
0	2756	2530	1
0	2764	2535	1
0	2767	2540	1
0	2775	2545	1
0	2778	2550	1
0	2786	2555	1
0	2789	2560	1
0	2797	2565	1
0	2800	2570	1
0	2808	2575	1
0	2811	2580	1
0	2819	2585	1
0	2822	2590	1
0	2830	2595	1
0	2833	2600	1
0	2841	2605	1
0	2844	2610	1
0	2852	2615	1
0	2855	2620	1
0	2863	2625	1
0	2866	2630	1
0	2874	2635	1
0	2877	2640	1
0	2885	2645	1
0	2888	2650	1
0	2896	2655	1
0	2899	2660	1
0	2907	2665	1
0	2910	2670	1
0	2918	2675	1
0	2921	2680	1
0	2929	2685	1
0	2932	2690	1
0	2940	2695	1
0	2943	2700	1
0	2951	2705	1
0	2954	2710	1
0	2962	2715	1
0	2965	2720	1
0	2973	2725	1
0	2976	2730	1
0	2984	2735	1
0	2987	2740	1
0	2995	2745	1
0	2998	2750	1
0	3006	2755	1
0	3009	2760	1
0	3017	2765	1
0	3020	2770	1
0	3028	2775	1
0	3031	2780	1
0	3039	2785	1
0	3042	2790	1
0	3050	2795	1
0	3053	2800	1
0	3061	2805	1
0	3064	2810	1
0	3072	2815	1
0	3075	2820	1
0	3083	2825	1
0	3086	2830	1
0	3094	2835	1
0	3097	2840	1
0	3105	2845	1
0	3108	2850	1
0	3116	2855	1
0	3119	2860	1
0	3127	2865	1
0	3130	2870	1
0	3138	2875	1
0	3141	2880	1
0	3149	2885	1
0	3152	2890	1
0	3160	2895	1
0	3163	2900	1
0	3171	2905	1
0	3174	2910	1
0	3182	2915	1
0	3185	2920	1
0	3193	2925	1
0	3196	2930	1
0	3204	2935	1
0	3207	2940	1
0	3215	2945	1
0	3218	2950	1
0	3226	2955	1
0	3229	2960	1
0	3237	2965	1
0	3240	2970	1
0	3248	2975	1
0	3251	2980	1
0	3259	2985	1
0	3262	2990	1
0	3270	2995	1
0	3273	3000	1
0	3281	3005	1
0	3284	3010	1
0	3292	3015	1
0	3295	3020	1
0	3303	3025	1
0	3306	3030	1
0	3314	3035	1
0	3317	3040	1
0	3325	3045	1
0	3328	3050	1
0	3336	3055	1
0	3339	3060	1
0	3347	3065	1
0	3350	3070	1
0	3358	3075	1
0	3361	3080	1
0	3369	3085	1
0	3372	3090	1
0	3380	3095	1
0	3383	3100	1
0	3391	3105	1
0	3394	3110	1
0	3402	3115	1
0	3405	3120	1
0	3413	3125	1
0	3416	3130	1
0	3424	3135	1
0	3427	3140	1
0	3435	3145	1
0	3438	3150	1
0	3446	3155	1
0	3449	3160	1
0	3457	3165	1
0	3460	3170	1
0	3468	3175	1
0	3471	3180	1
0	3479	3185	1
0	3482	3190	1
0	3490	3195	1
0	3493	3200	1
0	3501	3205	1
0	3504	3210	1
0	3512	3215	1
0	3515	3220	1
0	3523	3225	1
0	3526	3230	1
0	3534	3235	1
0	3537	3240	1
0	3545	3245	1
0	3548	3250	1
0	3556	3255	1
0	3559	3260	1
0	3567	3265	1
0	3570	3270	1
0	3578	3275	1
0	3581	3280	1
0	3589	3285	1
0	3592	3290	1
0	3600	3295	1
0	3603	3300	1
0	3611	3305	1
0	3614	3310	1
0	3622	3315	1
0	3625	3320	1
0	3633	3325	1
0	3636	3330	1
0	3644	3335	1
0	3647	3340	1
0	3655	3345	1
0	3658	3350	1
0	3666	3355	1
0	3669	3360	1
0	3677	3365	1
0	3680	3370	1
0	3688	3375	1
0	3691	3380	1
0	3699	3385	1
0	3702	3390	1
0	3710	3395	1
0	3713	3400	1
0	3721	3405	1
0	3724	3410	1
0	3732	3415	1
0	3735	3420	1
0	3743	3425	1
0	3746	3430	1
0	3754	3435	1
0	3757	3440	1
0	3765	3445	1
0	3768	3450	1
0	3776	3455	1
0	3779	3460	1
0	3787	3465	1
0	3790	3470	1
0	3798	3475	1
0	3801	3480	1
0	3809	3485	1
0	3812	3490	1
0	3820	3495	1
0	3823	3500	1
0	3831	3505	1
0	3834	3510	1
0	3842	3515	1
0	3845	3520	1
0	3853	3525	1
0	3856	3530	1
0	3864	3535	1
0	3867	3540	1
0	3875	3545	1
0	3878	3550	1
0	3886	3555	1
0	3889	3560	1
0	3897	3565	1
0	3900	3570	1
0	3908	3575	1
0	3911	3580	1
0	3919	3585	1
0	3922	3590	1
0	3930	3595	1
0	3933	3600	1
1	2	5	1
1	5	10	1
1	11	15	1
1	14	20	1
1	22	25	1
1	25	30	1
1	33	35	1
1	36	40	1
1	44	45	1
1	47	50	1
1	55	55	1
1	58	60	1
1	66	65	1
1	69	70	1
1	77	75	1
1	80	80	1
1	88	85	1
1	91	90	1
1	99	95	1
1	102	100	1
1	110	105	1
1	113	110	1
1	121	115	1
1	124	120	1
1	132	125	1
1	135	130	1
1	143	135	1
1	146	140	1
1	154	145	1
1	157	150	1
1	165	155	1
1	168	160	1
1	176	165	1
1	179	170	1
1	187	175	1
1	190	180	1
1	198	185	1
1	201	190	1
1	209	195	1
1	212	200	1
1	220	205	1
1	223	210	1
1	231	215	1
1	234	220	1
1	242	225	1
1	245	230	1
1	253	235	1
1	256	240	1
1	264	245	1
1	267	250	1
1	275	255	1
1	278	260	1
1	286	265	1
1	289	270	1
1	297	275	1
1	300	280	1
1	308	285	1
1	311	290	1
1	319	295	1
1	322	300	1
1	330	305	1
1	333	310	1
1	341	315	1
1	344	320	1
1	352	325	1
1	355	330	1
1	363	335	1
1	366	340	1
1	374	345	1
1	377	350	1
1	385	355	1
1	388	360	1
1	396	365	1
1	399	370	1
1	407	375	1
1	410	380	1
1	418	385	1
1	421	390	1
1	429	395	1
1	432	400	1
1	440	405	1
1	443	410	1
1	451	415	1
1	454	420	1
1	462	425	1
1	465	430	1
1	473	435	1
1	476	440	1
1	484	445	1
1	487	450	1
1	495	455	1
1	498	460	1
1	506	465	1
1	509	470	1
1	517	475	1
1	520	480	1
1	528	485	1
1	531	490	1
1	539	495	1
1	542	500	1
1	550	505	1
1	553	510	1
1	561	515	1
1	564	520	1
1	572	525	1
1	575	530	1
1	583	535	1
1	586	540	1
1	594	545	1
1	597	550	1
1	605	555	1
1	608	560	1
1	616	565	1
1	619	570	1
1	627	575	1
1	630	580	1
1	638	585	1
1	641	590	1
1	649	595	1
1	652	600	1
1	660	605	1
1	663	610	1
1	671	615	1
1	674	620	1
1	682	625	1
1	685	630	1
1	693	635	1
1	696	640	1
1	704	645	1
1	707	650	1
1	715	655	1
1	718	660	1
1	726	665	1
1	729	670	1
1	737	675	1
1	740	680	1
1	748	685	1
1	751	690	1
1	759	695	1
1	762	700	1
1	770	705	1
1	773	710	1
1	781	715	1
1	784	720	1
1	792	725	1
1	795	730	1
1	803	735	1
1	806	740	1
1	814	745	1
1	817	750	1
1	825	755	1
1	828	760	1
1	836	765	1
1	839	770	1
1	847	775	1
1	850	780	1
1	858	785	1
1	861	790	1
1	869	795	1
1	872	800	1
1	880	805	1
1	883	810	1
1	891	815	1
1	894	820	1
1	902	825	1
1	905	830	1
1	913	835	1
1	916	840	1
1	924	845	1
1	927	850	1
1	935	855	1
1	938	860	1
1	946	865	1
1	949	870	1
1	957	875	1
1	960	880	1
1	968	885	1
1	971	890	1
1	979	895	1
1	982	900	1
1	990	905	1
1	993	910	1
1	1001	915	1
1	1004	920	1
1	1012	925	1
1	1015	930	1
1	1023	935	1
1	1026	940	1
1	1034	945	1
1	1037	950	1
1	1045	955	1
1	1048	960	1
1	1056	965	1
1	1059	970	1
1	1067	975	1
1	1070	980	1
1	1078	985	1
1	1081	990	1
1	1089	995	1
1	1092	1000	1
1	1100	1005	1
1	1103	1010	1
1	1111	1015	1
1	1114	1020	1
1	1122	1025	1
1	1125	1030	1
1	1133	1035	1
1	1136	1040	1
1	1144	1045	1
1	1147	1050	1
1	1155	1055	1
1	1158	1060	1
1	1166	1065	1
1	1169	1070	1
1	1177	1075	1
1	1180	1080	1
1	1188	1085	1
1	1191	1090	1
1	1199	1095	1
1	1202	1100	1
1	1210	1105	1
1	1213	1110	1
1	1221	1115	1
1	1224	1120	1
1	1232	1125	1
1	1235	1130	1
1	1243	1135	1
1	1246	1140	1
1	1254	1145	1
1	1257	1150	1
1	1265	1155	1
1	1268	1160	1
1	1276	1165	1
1	1279	1170	1
1	1287	1175	1
1	1290	1180	1
1	1298	1185	1
1	1301	1190	1
1	1309	1195	1
1	1312	1200	1
1	1320	1205	1
1	1323	1210	1
1	1331	1215	1
1	1334	1220	1
1	1342	1225	1
1	1345	1230	1
1	1353	1235	1
1	1356	1240	1
1	1364	1245	1
1	1367	1250	1
1	1375	1255	1
1	1378	1260	1
1	1386	1265	1
1	1389	1270	1
1	1397	1275	1
1	1400	1280	1
1	1408	1285	1
1	1411	1290	1
1	1419	1295	1
1	1422	1300	1
1	1430	1305	1
1	1433	1310	1
1	1441	1315	1
1	1444	1320	1
1	1452	1325	1
1	1455	1330	1
1	1463	1335	1
1	1466	1340	1
1	1474	1345	1
1	1477	1350	1
1	1485	1355	1
1	1488	1360	1
1	1496	1365	1
1	1499	1370	1
1	1507	1375	1
1	1510	1380	1
1	1518	1385	1
1	1521	1390	1
1	1529	1395	1
1	1532	1400	1
1	1540	1405	1
1	1543	1410	1
1	1551	1415	1
1	1554	1420	1
1	1562	1425	1
1	1565	1430	1
1	1573	1435	1
1	1576	1440	1
1	1584	1445	1
1	1587	1450	1
1	1595	1455	1
1	1598	1460	1
1	1606	1465	1
1	1609	1470	1
1	1617	1475	1
1	1620	1480	1
1	1628	1485	1
1	1631	1490	1
1	1639	1495	1
1	1642	1500	1
1	1650	1505	1
1	1653	1510	1
1	1661	1515	1
1	1664	1520	1
1	1672	1525	1
1	1675	1530	1
1	1683	1535	1
1	1686	1540	1
1	1694	1545	1
1	1697	1550	1
1	1705	1555	1
1	1708	1560	1
1	1716	1565	1
1	1719	1570	1
1	1727	1575	1
1	1730	1580	1
1	1738	1585	1
1	1741	1590	1
1	1749	1595	1
1	1752	1600	1
1	1760	1605	1
1	1763	1610	1
1	1771	1615	1
1	1774	1620	1
1	1782	1625	1
1	1785	1630	1
1	1793	1635	1
1	1796	1640	1
1	1804	1645	1
1	1807	1650	1
1	1815	1655	1
1	1818	1660	1
1	1826	1665	1
1	1829	1670	1
1	1837	1675	1
1	1840	1680	1
1	1848	1685	1
1	1851	1690	1
1	1859	1695	1
1	1862	1700	1
1	1870	1705	1
1	1873	1710	1
1	1881	1715	1
1	1884	1720	1
1	1892	1725	1
1	1895	1730	1
1	1903	1735	1
1	1906	1740	1
1	1914	1745	1
1	1917	1750	1
1	1925	1755	1
1	1928	1760	1
1	1936	1765	1
1	1939	1770	1
1	1947	1775	1
1	1950	1780	1
1	1958	1785	1
1	1961	1790	1
1	1969	1795	1
1	1972	1800	1
1	1980	1805	1
1	1983	1810	1
1	1991	1815	1
1	1994	1820	1
1	2002	1825	1
1	2005	1830	1
1	2013	1835	1
1	2016	1840	1
1	2024	1845	1
1	2027	1850	1
1	2035	1855	1
1	2038	1860	1
1	2046	1865	1
1	2049	1870	1
1	2057	1875	1
1	2060	1880	1
1	2068	1885	1
1	2071	1890	1
1	2079	1895	1
1	2082	1900	1
1	2090	1905	1
1	2093	1910	1
1	2101	1915	1
1	2104	1920	1
1	2112	1925	1
1	2115	1930	1
1	2123	1935	1
1	2126	1940	1
1	2134	1945	1
1	2137	1950	1
1	2145	1955	1
1	2148	1960	1
1	2156	1965	1
1	2159	1970	1
1	2167	1975	1
1	2170	1980	1
1	2178	1985	1
1	2181	1990	1
1	2189	1995	1
1	2192	2000	1
1	2200	2005	1
1	2203	2010	1
1	2211	2015	1
1	2214	2020	1
1	2222	2025	1
1	2225	2030	1
1	2233	2035	1
1	2236	2040	1
1	2244	2045	1
1	2247	2050	1
1	2255	2055	1
1	2258	2060	1
1	2266	2065	1
1	2269	2070	1
1	2277	2075	1
1	2280	2080	1
1	2288	2085	1
1	2291	2090	1
1	2299	2095	1
1	2302	2100	1
1	2310	2105	1
1	2313	2110	1
1	2321	2115	1
1	2324	2120	1
1	2332	2125	1
1	2335	2130	1
1	2343	2135	1
1	2346	2140	1
1	2354	2145	1
1	2357	2150	1
1	2365	2155	1
1	2368	2160	1
1	2376	2165	1
1	2379	2170	1
1	2387	2175	1
1	2390	2180	1
1	2398	2185	1
1	2401	2190	1
1	2409	2195	1
1	2412	2200	1
1	2420	2205	1
1	2423	2210	1
1	2431	2215	1
1	2434	2220	1
1	2442	2225	1
1	2445	2230	1
1	2453	2235	1
1	2456	2240	1
1	2464	2245	1
1	2467	2250	1
1	2475	2255	1
1	2478	2260	1
1	2486	2265	1
1	2489	2270	1
1	2497	2275	1
1	2500	2280	1
1	2508	2285	1
1	2511	2290	1
1	2519	2295	1
1	2522	2300	1
1	2530	2305	1
1	2533	2310	1
1	2541	2315	1
1	2544	2320	1
1	2552	2325	1
1	2555	2330	1
1	2563	2335	1
1	2566	2340	1
1	2574	2345	1
1	2577	2350	1
1	2585	2355	1
1	2588	2360	1
1	2596	2365	1
1	2599	2370	1
1	2607	2375	1
1	2610	2380	1
1	2614	2385	1
1	2617	2390	1
1	2621	2395	1
1	2624	2400	1
1	2628	2405	1
1	2631	2410	1
1	2636	2415	1
1	2639	2420	1
1	2645	2425	1
1	2648	2430	1
1	2655	2435	1
1	2658	2440	1
1	2666	2445	1
1	2669	2450	1
1	2677	2455	1
1	2680	2460	1
1	2688	2465	1
1	2691	2470	1
1	2699	2475	1
1	2702	2480	1
1	2710	2485	1
1	2713	2490	1
1	2721	2495	1
1	2724	2500	1
1	2732	2505	1
1	2735	2510	1
1	2743	2515	1
1	2746	2520	1
1	2754	2525	1
1	2757	2530	1
1	2765	2535	1
1	2768	2540	1
1	2776	2545	1
1	2779	2550	1
1	2787	2555	1
1	2790	2560	1
1	2798	2565	1
1	2801	2570	1
1	2809	2575	1
1	2812	2580	1
1	2820	2585	1
1	2823	2590	1
1	2831	2595	1
1	2834	2600	1
1	2842	2605	1
1	2845	2610	1
1	2853	2615	1
1	2856	2620	1
1	2864	2625	1
1	2867	2630	1
1	2875	2635	1
1	2878	2640	1
1	2886	2645	1
1	2889	2650	1
1	2897	2655	1
1	2900	2660	1
1	2908	2665	1
1	2911	2670	1
1	2919	2675	1
1	2922	2680	1
1	2930	2685	1
1	2933	2690	1
1	2941	2695	1
1	2944	2700	1
1	2952	2705	1
1	2955	2710	1
1	2963	2715	1
1	2966	2720	1
1	2974	2725	1
1	2977	2730	1
1	2985	2735	1
1	2988	2740	1
1	2996	2745	1
1	2999	2750	1
1	3007	2755	1
1	3010	2760	1
1	3018	2765	1
1	3021	2770	1
1	3029	2775	1
1	3032	2780	1
1	3040	2785	1
1	3043	2790	1
1	3051	2795	1
1	3054	2800	1
1	3062	2805	1
1	3065	2810	1
1	3073	2815	1
1	3076	2820	1
1	3084	2825	1
1	3087	2830	1
1	3095	2835	1
1	3098	2840	1
1	3106	2845	1
1	3109	2850	1
1	3117	2855	1
1	3120	2860	1
1	3128	2865	1
1	3131	2870	1
1	3139	2875	1
1	3142	2880	1
1	3150	2885	1
1	3153	2890	1
1	3161	2895	1
1	3164	2900	1
1	3172	2905	1
1	3175	2910	1
1	3183	2915	1
1	3186	2920	1
1	3194	2925	1
1	3197	2930	1
1	3205	2935	1
1	3208	2940	1
1	3216	2945	1
1	3219	2950	1
1	3227	2955	1
1	3230	2960	1
1	3238	2965	1
1	3241	2970	1
1	3249	2975	1
1	3252	2980	1
1	3260	2985	1
1	3263	2990	1
1	3271	2995	1
1	3274	3000	1
1	3282	3005	1
1	3285	3010	1
1	3293	3015	1
1	3296	3020	1
1	3304	3025	1
1	3307	3030	1
1	3315	3035	1
1	3318	3040	1
1	3326	3045	1
1	3329	3050	1
1	3337	3055	1
1	3340	3060	1
1	3348	3065	1
1	3351	3070	1
1	3359	3075	1
1	3362	3080	1
1	3370	3085	1
1	3373	3090	1
1	3381	3095	1
1	3384	3100	1
1	3392	3105	1
1	3395	3110	1
1	3403	3115	1
1	3406	3120	1
1	3414	3125	1
1	3417	3130	1
1	3425	3135	1
1	3428	3140	1
1	3436	3145	1
1	3439	3150	1
1	3447	3155	1
1	3450	3160	1
1	3458	3165	1
1	3461	3170	1
1	3469	3175	1
1	3472	3180	1
1	3480	3185	1
1	3483	3190	1
1	3491	3195	1
1	3494	3200	1
1	3502	3205	1
1	3505	3210	1
1	3513	3215	1
1	3516	3220	1
1	3524	3225	1
1	3527	3230	1
1	3535	3235	1
1	3538	3240	1
1	3546	3245	1
1	3549	3250	1
1	3557	3255	1
1	3560	3260	1
1	3568	3265	1
1	3571	3270	1
1	3579	3275	1
1	3582	3280	1
1	3590	3285	1
1	3593	3290	1
1	3601	3295	1
1	3604	3300	1
1	3612	3305	1
1	3615	3310	1
1	3623	3315	1
1	3626	3320	1
1	3634	3325	1
1	3637	3330	1
1	3645	3335	1
1	3648	3340	1
1	3656	3345	1
1	3659	3350	1
1	3667	3355	1
1	3670	3360	1
1	3678	3365	1
1	3681	3370	1
1	3689	3375	1
1	3692	3380	1
1	3700	3385	1
1	3703	3390	1
1	3711	3395	1
1	3714	3400	1
1	3722	3405	1
1	3725	3410	1
1	3733	3415	1
1	3736	3420	1
1	3744	3425	1
1	3747	3430	1
1	3755	3435	1
1	3758	3440	1
1	3766	3445	1
1	3769	3450	1
1	3777	3455	1
1	3780	3460	1
1	3788	3465	1
1	3791	3470	1
1	3799	3475	1
1	3802	3480	1
1	3810	3485	1
1	3813	3490	1
1	3821	3495	1
1	3824	3500	1
1	3832	3505	1
1	3835	3510	1
1	3843	3515	1
1	3846	3520	1
1	3854	3525	1
1	3857	3530	1
1	3865	3535	1
1	3868	3540	1
1	3876	3545	1
1	3879	3550	1
1	3887	3555	1
1	3890	3560	1
1	3898	3565	1
1	3901	3570	1
1	3909	3575	1
1	3912	3580	1
1	3920	3585	1
1	3923	3590	1
1	3931	3595	1
1	3934	3600	1
2	3	10	0
2	12	20	2
2	23	30	2
2	34	40	2
2	45	50	2
2	56	60	2
2	67	70	2
2	78	80	2
2	89	90	2
2	100	100	2
2	111	110	2
2	122	120	2
2	133	130	2
2	144	140	2
2	155	150	2
2	166	160	2
2	177	170	2
2	188	180	2
2	199	190	2
2	210	200	2
2	221	210	2
2	232	220	2
2	243	230	2
2	254	240	2
2	265	250	2
2	276	260	2
2	287	270	2
2	298	280	2
2	309	290	2
2	320	300	2
2	331	310	2
2	342	320	2
2	353	330	2
2	364	340	2
2	375	350	2
2	386	360	2
2	397	370	2
2	408	380	2
2	419	390	2
2	430	400	2
2	441	410	2
2	452	420	2
2	463	430	2
2	474	440	2
2	485	450	2
2	496	460	2
2	507	470	2
2	518	480	2
2	529	490	2
2	540	500	2
2	551	510	2
2	562	520	2
2	573	530	2
2	584	540	2
2	595	550	2
2	606	560	2
2	617	570	2
2	628	580	2
2	639	590	2
2	650	600	2
2	661	610	2
2	672	620	2
2	683	630	2
2	694	640	2
2	705	650	2
2	716	660	2
2	727	670	2
2	738	680	2
2	749	690	2
2	760	700	2
2	771	710	2
2	782	720	2
2	793	730	2
2	804	740	2
2	815	750	2
2	826	760	2
2	837	770	2
2	848	780	2
2	859	790	2
2	870	800	2
2	881	810	2
2	892	820	2
2	903	830	2
2	914	840	2
2	925	850	2
2	936	860	2
2	947	870	2
2	958	880	2
2	969	890	2
2	980	900	2
2	991	910	2
2	1002	920	2
2	1013	930	2
2	1024	940	2
2	1035	950	2
2	1046	960	2
2	1057	970	2
2	1068	980	2
2	1079	990	2
2	1090	1000	2
2	1101	1010	2
2	1112	1020	2
2	1123	1030	2
2	1134	1040	2
2	1145	1050	2
2	1156	1060	2
2	1167	1070	2
2	1178	1080	2
2	1189	1090	2
2	1200	1100	2
2	1211	1110	2
2	1222	1120	2
2	1233	1130	2
2	1244	1140	2
2	1255	1150	2
2	1266	1160	2
2	1277	1170	2
2	1288	1180	2
2	1299	1190	2
2	1310	1200	2
2	1321	1210	2
2	1332	1220	2
2	1343	1230	2
2	1354	1240	2
2	1365	1250	2
2	1376	1260	2
2	1387	1270	2
2	1398	1280	2
2	1409	1290	2
2	1420	1300	2
2	1431	1310	2
2	1442	1320	2
2	1453	1330	2
2	1464	1340	2
2	1475	1350	2
2	1486	1360	2
2	1497	1370	2
2	1508	1380	2
2	1519	1390	2
2	1530	1400	2
2	1541	1410	2
2	1552	1420	2
2	1563	1430	2
2	1574	1440	2
2	1585	1450	2
2	1596	1460	2
2	1607	1470	2
2	1618	1480	2
2	1629	1490	2
2	1640	1500	2
2	1651	1510	2
2	1662	1520	2
2	1673	1530	2
2	1684	1540	2
2	1695	1550	2
2	1706	1560	2
2	1717	1570	2
2	1728	1580	2
2	1739	1590	2
2	1750	1600	2
2	1761	1610	2
2	1772	1620	2
2	1783	1630	2
2	1794	1640	2
2	1805	1650	2
2	1816	1660	2
2	1827	1670	2
2	1838	1680	2
2	1849	1690	2
2	1860	1700	2
2	1871	1710	2
2	1882	1720	2
2	1893	1730	2
2	1904	1740	2
2	1915	1750	2
2	1926	1760	2
2	1937	1770	2
2	1948	1780	2
2	1959	1790	2
2	1970	1800	2
2	1981	1810	2
2	1992	1820	2
2	2003	1830	2
2	2014	1840	2
2	2025	1850	2
2	2036	1860	2
2	2047	1870	2
2	2058	1880	2
2	2069	1890	2
2	2080	1900	2
2	2091	1910	2
2	2102	1920	2
2	2113	1930	2
2	2124	1940	2
2	2135	1950	2
2	2146	1960	2
2	2157	1970	2
2	2168	1980	2
2	2179	1990	2
2	2190	2000	2
2	2201	2010	2
2	2212	2020	2
2	2223	2030	2
2	2234	2040	2
2	2245	2050	2
2	2256	2060	2
2	2267	2070	2
2	2278	2080	2
2	2289	2090	2
2	2300	2100	2
2	2311	2110	2
2	2322	2120	2
2	2333	2130	2
2	2344	2140	2
2	2355	2150	2
2	2366	2160	2
2	2377	2170	2
2	2388	2180	2
2	2399	2190	2
2	2410	2200	2
2	2421	2210	2
2	2432	2220	2
2	2443	2230	2
2	2454	2240	2
2	2465	2250	2
2	2476	2260	2
2	2487	2270	2
2	2498	2280	2
2	2509	2290	2
2	2520	2300	2
2	2531	2310	2
2	2542	2320	2
2	2553	2330	2
2	2564	2340	2
2	2575	2350	2
2	2586	2360	2
2	2597	2370	2
2	2608	2380	0
2	2615	2390	0
2	2622	2400	0
2	2629	2410	0
2	2637	2420	1
2	2646	2430	1
2	2656	2440	2
2	2667	2450	2
2	2678	2460	2
2	2689	2470	2
2	2700	2480	2
2	2711	2490	2
2	2722	2500	2
2	2733	2510	2
2	2744	2520	2
2	2755	2530	2
2	2766	2540	2
2	2777	2550	2
2	2788	2560	2
2	2799	2570	2
2	2810	2580	2
2	2821	2590	2
2	2832	2600	2
2	2843	2610	2
2	2854	2620	2
2	2865	2630	2
2	2876	2640	2
2	2887	2650	2
2	2898	2660	2
2	2909	2670	2
2	2920	2680	2
2	2931	2690	2
2	2942	2700	2
2	2953	2710	2
2	2964	2720	2
2	2975	2730	2
2	2986	2740	2
2	2997	2750	2
2	3008	2760	2
2	3019	2770	2
2	3030	2780	2
2	3041	2790	2
2	3052	2800	2
2	3063	2810	2
2	3074	2820	2
2	3085	2830	2
2	3096	2840	2
2	3107	2850	2
2	3118	2860	2
2	3129	2870	2
2	3140	2880	2
2	3151	2890	2
2	3162	2900	2
2	3173	2910	2
2	3184	2920	2
2	3195	2930	2
2	3206	2940	2
2	3217	2950	2
2	3228	2960	2
2	3239	2970	2
2	3250	2980	2
2	3261	2990	2
2	3272	3000	2
2	3283	3010	2
2	3294	3020	2
2	3305	3030	2
2	3316	3040	2
2	3327	3050	2
2	3338	3060	2
2	3349	3070	2
2	3360	3080	2
2	3371	3090	2
2	3382	3100	2
2	3393	3110	2
2	3404	3120	2
2	3415	3130	2
2	3426	3140	2
2	3437	3150	2
2	3448	3160	2
2	3459	3170	2
2	3470	3180	2
2	3481	3190	2
2	3492	3200	2
2	3503	3210	2
2	3514	3220	2
2	3525	3230	2
2	3536	3240	2
2	3547	3250	2
2	3558	3260	2
2	3569	3270	2
2	3580	3280	2
2	3591	3290	2
2	3602	3300	2
2	3613	3310	2
2	3624	3320	2
2	3635	3330	2
2	3646	3340	2
2	3657	3350	2
2	3668	3360	2
2	3679	3370	2
2	3690	3380	2
2	3701	3390	2
2	3712	3400	2
2	3723	3410	2
2	3734	3420	2
2	3745	3430	2
2	3756	3440	2
2	3767	3450	2
2	3778	3460	2
2	3789	3470	2
2	3800	3480	2
2	3811	3490	2
2	3822	3500	2
2	3833	3510	2
2	3844	3520	2
2	3855	3530	2
2	3866	3540	2
2	3877	3550	2
2	3888	3560	2
2	3899	3570	2
2	3910	3580	2
2	3921	3590	2
2	3932	3600	2
3	16	20	1
3	27	30	1
3	38	40	1
3	49	50	1
3	60	60	1
3	71	70	1
3	82	80	1
3	93	90	1
3	104	100	1
3	115	110	1
3	126	120	1
3	137	130	1
3	148	140	1
3	159	150	1
3	170	160	1
3	181	170	1
3	192	180	1
3	203	190	1
3	214	200	1
3	225	210	1
3	236	220	1
3	247	230	1
3	258	240	1
3	269	250	1
3	280	260	1
3	291	270	1
3	302	280	1
3	313	290	1
3	324	300	1
3	335	310	1
3	346	320	1
3	357	330	1
3	368	340	1
3	379	350	1
3	390	360	1
3	401	370	1
3	412	380	1
3	423	390	1
3	434	400	1
3	445	410	1
3	456	420	1
3	467	430	1
3	478	440	1
3	489	450	1
3	500	460	1
3	511	470	1
3	522	480	1
3	533	490	1
3	544	500	1
3	555	510	1
3	566	520	1
3	577	530	1
3	588	540	1
3	599	550	1
3	610	560	1
3	621	570	1
3	632	580	1
3	643	590	1
3	654	600	1
3	665	610	1
3	676	620	1
3	687	630	1
3	698	640	1
3	709	650	1
3	720	660	1
3	731	670	1
3	742	680	1
3	753	690	1
3	764	700	1
3	775	710	1
3	786	720	1
3	797	730	1
3	808	740	1
3	819	750	1
3	830	760	1
3	841	770	1
3	852	780	1
3	863	790	1
3	874	800	1
3	885	810	1
3	896	820	1
3	907	830	1
3	918	840	1
3	929	850	1
3	940	860	1
3	951	870	1
3	962	880	1
3	973	890	1
3	984	900	1
3	995	910	1
3	1006	920	1
3	1017	930	1
3	1028	940	1
3	1039	950	1
3	1050	960	1
3	1061	970	1
3	1072	980	1
3	1083	990	1
3	1094	1000	1
3	1105	1010	1
3	1116	1020	1
3	1127	1030	1
3	1138	1040	1
3	1149	1050	1
3	1160	1060	1
3	1171	1070	1
3	1182	1080	1
3	1193	1090	1
3	1204	1100	1
3	1215	1110	1
3	1226	1120	1
3	1237	1130	1
3	1248	1140	1
3	1259	1150	1
3	1270	1160	1
3	1281	1170	1
3	1292	1180	1
3	1303	1190	1
3	1314	1200	1
3	1325	1210	1
3	1336	1220	1
3	1347	1230	1
3	1358	1240	1
3	1369	1250	1
3	1380	1260	1
3	1391	1270	1
3	1402	1280	1
3	1413	1290	1
3	1424	1300	1
3	1435	1310	1
3	1446	1320	1
3	1457	1330	1
3	1468	1340	1
3	1479	1350	1
3	1490	1360	1
3	1501	1370	1
3	1512	1380	1
3	1523	1390	1
3	1534	1400	1
3	1545	1410	1
3	1556	1420	1
3	1567	1430	1
3	1578	1440	1
3	1589	1450	1
3	1600	1460	1
3	1611	1470	1
3	1622	1480	1
3	1633	1490	1
3	1644	1500	1
3	1655	1510	1
3	1666	1520	1
3	1677	1530	1
3	1688	1540	1
3	1699	1550	1
3	1710	1560	1
3	1721	1570	1
3	1732	1580	1
3	1743	1590	1
3	1754	1600	1
3	1765	1610	1
3	1776	1620	1
3	1787	1630	1
3	1798	1640	1
3	1809	1650	1
3	1820	1660	1
3	1831	1670	1
3	1842	1680	1
3	1853	1690	1
3	1864	1700	1
3	1875	1710	1
3	1886	1720	1
3	1897	1730	1
3	1908	1740	1
3	1919	1750	1
3	1930	1760	1
3	1941	1770	1
3	1952	1780	1
3	1963	1790	1
3	1974	1800	1
3	1985	1810	1
3	1996	1820	1
3	2007	1830	1
3	2018	1840	1
3	2029	1850	1
3	2040	1860	1
3	2051	1870	1
3	2062	1880	1
3	2073	1890	1
3	2084	1900	1
3	2095	1910	1
3	2106	1920	1
3	2117	1930	1
3	2128	1940	1
3	2139	1950	1
3	2150	1960	1
3	2161	1970	1
3	2172	1980	1
3	2183	1990	1
3	2194	2000	1
3	2205	2010	1
3	2216	2020	1
3	2227	2030	1
3	2238	2040	1
3	2249	2050	1
3	2260	2060	1
3	2271	2070	1
3	2282	2080	1
3	2293	2090	1
3	2304	2100	1
3	2315	2110	1
3	2326	2120	1
3	2337	2130	1
3	2348	2140	1
3	2359	2150	1
3	2370	2160	1
3	2381	2170	1
3	2392	2180	1
3	2403	2190	1
3	2414	2200	1
3	2425	2210	1
3	2436	2220	1
3	2447	2230	1
3	2458	2240	1
3	2469	2250	1
3	2480	2260	1
3	2491	2270	1
3	2502	2280	1
3	2513	2290	1
3	2524	2300	1
3	2535	2310	1
3	2546	2320	1
3	2557	2330	1
3	2568	2340	1
3	2579	2350	1
3	2590	2360	1
3	2601	2370	1
3	2641	2420	1
3	2650	2430	1
3	2660	2440	1
3	2671	2450	1
3	2682	2460	1
3	2693	2470	1
3	2704	2480	1
3	2715	2490	1
3	2726	2500	1
3	2737	2510	1
3	2748	2520	1
3	2759	2530	1
3	2770	2540	1
3	2781	2550	1
3	2792	2560	1
3	2803	2570	1
3	2814	2580	1
3	2825	2590	1
3	2836	2600	1
3	2847	2610	1
3	2858	2620	1
3	2869	2630	1
3	2880	2640	1
3	2891	2650	1
3	2902	2660	1
3	2913	2670	1
3	2924	2680	1
3	2935	2690	1
3	2946	2700	1
3	2957	2710	1
3	2968	2720	1
3	2979	2730	1
3	2990	2740	1
3	3001	2750	1
3	3012	2760	1
3	3023	2770	1
3	3034	2780	1
3	3045	2790	1
3	3056	2800	1
3	3067	2810	1
3	3078	2820	1
3	3089	2830	1
3	3100	2840	1
3	3111	2850	1
3	3122	2860	1
3	3133	2870	1
3	3144	2880	1
3	3155	2890	1
3	3166	2900	1
3	3177	2910	1
3	3188	2920	1
3	3199	2930	1
3	3210	2940	1
3	3221	2950	1
3	3232	2960	1
3	3243	2970	1
3	3254	2980	1
3	3265	2990	1
3	3276	3000	1
3	3287	3010	1
3	3298	3020	1
3	3309	3030	1
3	3320	3040	1
3	3331	3050	1
3	3342	3060	1
3	3353	3070	1
3	3364	3080	1
3	3375	3090	1
3	3386	3100	1
3	3397	3110	1
3	3408	3120	1
3	3419	3130	1
3	3430	3140	1
3	3441	3150	1
3	3452	3160	1
3	3463	3170	1
3	3474	3180	1
3	3485	3190	1
3	3496	3200	1
3	3507	3210	1
3	3518	3220	1
3	3529	3230	1
3	3540	3240	1
3	3551	3250	1
3	3562	3260	1
3	3573	3270	1
3	3584	3280	1
3	3595	3290	1
3	3606	3300	1
3	3617	3310	1
3	3628	3320	1
3	3639	3330	1
3	3650	3340	1
3	3661	3350	1
3	3672	3360	1
3	3683	3370	1
3	3694	3380	1
3	3705	3390	1
3	3716	3400	1
3	3727	3410	1
3	3738	3420	1
3	3749	3430	1
3	3760	3440	1
3	3771	3450	1
3	3782	3460	1
3	3793	3470	1
3	3804	3480	1
3	3815	3490	1
3	3826	3500	1
3	3837	3510	1
3	3848	3520	1
3	3859	3530	1
3	3870	3540	1
3	3881	3550	1
3	3892	3560	1
3	3903	3570	1
3	3914	3580	1
3	3925	3590	1
3	3936	3600	1
4	16	20	15
4	27	30	20
4	38	40	25
4	49	50	30
4	60	60	35
4	71	70	40
4	82	80	45
4	93	90	50
4	104	100	55
4	115	110	60
4	126	120	65
4	137	130	70
4	148	140	75
4	159	150	80
4	170	160	85
4	181	170	90
4	192	180	95
4	203	190	100
4	214	200	105
4	225	210	110
4	236	220	115
4	247	230	120
4	258	240	125
4	269	250	130
4	280	260	135
4	291	270	140
4	302	280	145
4	313	290	150
4	324	300	155
4	335	310	160
4	346	320	165
4	357	330	170
4	368	340	175
4	379	350	180
4	390	360	185
4	401	370	190
4	412	380	195
4	423	390	200
4	434	400	205
4	445	410	210
4	456	420	215
4	467	430	220
4	478	440	225
4	489	450	230
4	500	460	235
4	511	470	240
4	522	480	245
4	533	490	250
4	544	500	255
4	555	510	260
4	566	520	265
4	577	530	270
4	588	540	275
4	599	550	280
4	610	560	285
4	621	570	290
4	632	580	295
4	643	590	300
4	654	600	305
4	665	610	310
4	676	620	315
4	687	630	320
4	698	640	325
4	709	650	330
4	720	660	335
4	731	670	340
4	742	680	345
4	753	690	350
4	764	700	355
4	775	710	360
4	786	720	365
4	797	730	370
4	808	740	375
4	819	750	380
4	830	760	385
4	841	770	390
4	852	780	395
4	863	790	400
4	874	800	405
4	885	810	410
4	896	820	415
4	907	830	420
4	918	840	425
4	929	850	430
4	940	860	435
4	951	870	440
4	962	880	445
4	973	890	450
4	984	900	455
4	995	910	460
4	1006	920	465
4	1017	930	470
4	1028	940	475
4	1039	950	480
4	1050	960	485
4	1061	970	490
4	1072	980	495
4	1083	990	500
4	1094	1000	505
4	1105	1010	510
4	1116	1020	515
4	1127	1030	520
4	1138	1040	525
4	1149	1050	530
4	1160	1060	535
4	1171	1070	540
4	1182	1080	545
4	1193	1090	550
4	1204	1100	555
4	1215	1110	560
4	1226	1120	565
4	1237	1130	570
4	1248	1140	575
4	1259	1150	580
4	1270	1160	585
4	1281	1170	590
4	1292	1180	595
4	1303	1190	600
4	1314	1200	605
4	1325	1210	610
4	1336	1220	615
4	1347	1230	620
4	1358	1240	625
4	1369	1250	630
4	1380	1260	635
4	1391	1270	640
4	1402	1280	645
4	1413	1290	650
4	1424	1300	655
4	1435	1310	660
4	1446	1320	665
4	1457	1330	670
4	1468	1340	675
4	1479	1350	680
4	1490	1360	685
4	1501	1370	690
4	1512	1380	695
4	1523	1390	700
4	1534	1400	705
4	1545	1410	710
4	1556	1420	715
4	1567	1430	720
4	1578	1440	725
4	1589	1450	730
4	1600	1460	735
4	1611	1470	740
4	1622	1480	745
4	1633	1490	750
4	1644	1500	755
4	1655	1510	760
4	1666	1520	765
4	1677	1530	770
4	1688	1540	775
4	1699	1550	780
4	1710	1560	785
4	1721	1570	790
4	1732	1580	795
4	1743	1590	800
4	1754	1600	805
4	1765	1610	810
4	1776	1620	815
4	1787	1630	820
4	1798	1640	825
4	1809	1650	830
4	1820	1660	835
4	1831	1670	840
4	1842	1680	845
4	1853	1690	850
4	1864	1700	855
4	1875	1710	860
4	1886	1720	865
4	1897	1730	870
4	1908	1740	875
4	1919	1750	880
4	1930	1760	885
4	1941	1770	890
4	1952	1780	895
4	1963	1790	900
4	1974	1800	905
4	1985	1810	910
4	1996	1820	915
4	2007	1830	920
4	2018	1840	925
4	2029	1850	930
4	2040	1860	935
4	2051	1870	940
4	2062	1880	945
4	2073	1890	950
4	2084	1900	955
4	2095	1910	960
4	2106	1920	965
4	2117	1930	970
4	2128	1940	975
4	2139	1950	980
4	2150	1960	985
4	2161	1970	990
4	2172	1980	995
4	2183	1990	1000
4	2194	2000	1005
4	2205	2010	1010
4	2216	2020	1015
4	2227	2030	1020
4	2238	2040	1025
4	2249	2050	1030
4	2260	2060	1035
4	2271	2070	1040
4	2282	2080	1045
4	2293	2090	1050
4	2304	2100	1055
4	2315	2110	1060
4	2326	2120	1065
4	2337	2130	1070
4	2348	2140	1075
4	2359	2150	1080
4	2370	2160	1085
4	2381	2170	1090
4	2392	2180	1095
4	2403	2190	1100
4	2414	2200	1105
4	2425	2210	1110
4	2436	2220	1115
4	2447	2230	1120
4	2458	2240	1125
4	2469	2250	1130
4	2480	2260	1135
4	2491	2270	1140
4	2502	2280	1145
4	2513	2290	1150
4	2524	2300	1155
4	2535	2310	1160
4	2546	2320	1165
4	2557	2330	1170
4	2568	2340	1175
4	2579	2350	1180
4	2590	2360	1185
4	2601	2370	1190
4	2641	2420	1235
4	2650	2430	1240
4	2660	2440	1245
4	2671	2450	1250
4	2682	2460	1255
4	2693	2470	1260
4	2704	2480	1265
4	2715	2490	1270
4	2726	2500	1275
4	2737	2510	1280
4	2748	2520	1285
4	2759	2530	1290
4	2770	2540	1295
4	2781	2550	1300
4	2792	2560	1305
4	2803	2570	1310
4	2814	2580	1315
4	2825	2590	1320
4	2836	2600	1325
4	2847	2610	1330
4	2858	2620	1335
4	2869	2630	1340
4	2880	2640	1345
4	2891	2650	1350
4	2902	2660	1355
4	2913	2670	1360
4	2924	2680	1365
4	2935	2690	1370
4	2946	2700	1375
4	2957	2710	1380
4	2968	2720	1385
4	2979	2730	1390
4	2990	2740	1395
4	3001	2750	1400
4	3012	2760	1405
4	3023	2770	1410
4	3034	2780	1415
4	3045	2790	1420
4	3056	2800	1425
4	3067	2810	1430
4	3078	2820	1435
4	3089	2830	1440
4	3100	2840	1445
4	3111	2850	1450
4	3122	2860	1455
4	3133	2870	1460
4	3144	2880	1465
4	3155	2890	1470
4	3166	2900	1475
4	3177	2910	1480
4	3188	2920	1485
4	3199	2930	1490
4	3210	2940	1495
4	3221	2950	1500
4	3232	2960	1505
4	3243	2970	1510
4	3254	2980	1515
4	3265	2990	1520
4	3276	3000	1525
4	3287	3010	1530
4	3298	3020	1535
4	3309	3030	1540
4	3320	3040	1545
4	3331	3050	1550
4	3342	3060	1555
4	3353	3070	1560
4	3364	3080	1565
4	3375	3090	1570
4	3386	3100	1575
4	3397	3110	1580
4	3408	3120	1585
4	3419	3130	1590
4	3430	3140	1595
4	3441	3150	1600
4	3452	3160	1605
4	3463	3170	1610
4	3474	3180	1615
4	3485	3190	1620
4	3496	3200	1625
4	3507	3210	1630
4	3518	3220	1635
4	3529	3230	1640
4	3540	3240	1645
4	3551	3250	1650
4	3562	3260	1655
4	3573	3270	1660
4	3584	3280	1665
4	3595	3290	1670
4	3606	3300	1675
4	3617	3310	1680
4	3628	3320	1685
4	3639	3330	1690
4	3650	3340	1695
4	3661	3350	1700
4	3672	3360	1705
4	3683	3370	1710
4	3694	3380	1715
4	3705	3390	1720
4	3716	3400	1725
4	3727	3410	1730
4	3738	3420	1735
4	3749	3430	1740
4	3760	3440	1745
4	3771	3450	1750
4	3782	3460	1755
4	3793	3470	1760
4	3804	3480	1765
4	3815	3490	1770
4	3826	3500	1775
4	3837	3510	1780
4	3848	3520	1785
4	3859	3530	1790
4	3870	3540	1795
4	3881	3550	1800
4	3892	3560	1805
4	3903	3570	1810
4	3914	3580	1815
4	3925	3590	1820
4	3936	3600	1825
5	16	20	0
5	27	30	1
5	38	40	1
5	49	50	1
5	60	60	1
5	71	70	1
5	82	80	1
5	93	90	1
5	104	100	1
5	115	110	1
5	126	120	1
5	137	130	1
5	148	140	1
5	159	150	1
5	170	160	1
5	181	170	1
5	192	180	1
5	203	190	1
5	214	200	1
5	225	210	1
5	236	220	1
5	247	230	1
5	258	240	1
5	269	250	1
5	280	260	1
5	291	270	1
5	302	280	1
5	313	290	1
5	324	300	1
5	335	310	1
5	346	320	1
5	357	330	1
5	368	340	1
5	379	350	1
5	390	360	1
5	401	370	1
5	412	380	1
5	423	390	1
5	434	400	1
5	445	410	1
5	456	420	1
5	467	430	1
5	478	440	1
5	489	450	1
5	500	460	1
5	511	470	1
5	522	480	1
5	533	490	1
5	544	500	1
5	555	510	1
5	566	520	1
5	577	530	1
5	588	540	1
5	599	550	1
5	610	560	1
5	621	570	1
5	632	580	1
5	643	590	1
5	654	600	1
5	665	610	1
5	676	620	1
5	687	630	1
5	698	640	1
5	709	650	1
5	720	660	1
5	731	670	1
5	742	680	1
5	753	690	1
5	764	700	1
5	775	710	1
5	786	720	1
5	797	730	1
5	808	740	1
5	819	750	1
5	830	760	1
5	841	770	1
5	852	780	1
5	863	790	1
5	874	800	1
5	885	810	1
5	896	820	1
5	907	830	1
5	918	840	1
5	929	850	1
5	940	860	1
5	951	870	1
5	962	880	1
5	973	890	1
5	984	900	1
5	995	910	1
5	1006	920	1
5	1017	930	1
5	1028	940	1
5	1039	950	1
5	1050	960	1
5	1061	970	1
5	1072	980	1
5	1083	990	1
5	1094	1000	1
5	1105	1010	1
5	1116	1020	1
5	1127	1030	1
5	1138	1040	1
5	1149	1050	1
5	1160	1060	1
5	1171	1070	1
5	1182	1080	1
5	1193	1090	1
5	1204	1100	1
5	1215	1110	1
5	1226	1120	1
5	1237	1130	1
5	1248	1140	1
5	1259	1150	1
5	1270	1160	1
5	1281	1170	1
5	1292	1180	1
5	1303	1190	1
5	1314	1200	1
5	1325	1210	1
5	1336	1220	1
5	1347	1230	1
5	1358	1240	1
5	1369	1250	1
5	1380	1260	1
5	1391	1270	1
5	1402	1280	1
5	1413	1290	1
5	1424	1300	1
5	1435	1310	1
5	1446	1320	1
5	1457	1330	1
5	1468	1340	1
5	1479	1350	1
5	1490	1360	1
5	1501	1370	1
5	1512	1380	1
5	1523	1390	1
5	1534	1400	1
5	1545	1410	1
5	1556	1420	1
5	1567	1430	1
5	1578	1440	1
5	1589	1450	1
5	1600	1460	1
5	1611	1470	1
5	1622	1480	1
5	1633	1490	1
5	1644	1500	1
5	1655	1510	1
5	1666	1520	1
5	1677	1530	1
5	1688	1540	1
5	1699	1550	1
5	1710	1560	1
5	1721	1570	1
5	1732	1580	1
5	1743	1590	1
5	1754	1600	1
5	1765	1610	1
5	1776	1620	1
5	1787	1630	1
5	1798	1640	1
5	1809	1650	1
5	1820	1660	1
5	1831	1670	1
5	1842	1680	1
5	1853	1690	1
5	1864	1700	1
5	1875	1710	1
5	1886	1720	1
5	1897	1730	1
5	1908	1740	1
5	1919	1750	1
5	1930	1760	1
5	1941	1770	1
5	1952	1780	1
5	1963	1790	1
5	1974	1800	1
5	1985	1810	1
5	1996	1820	1
5	2007	1830	1
5	2018	1840	1
5	2029	1850	1
5	2040	1860	1
5	2051	1870	1
5	2062	1880	1
5	2073	1890	1
5	2084	1900	1
5	2095	1910	1
5	2106	1920	1
5	2117	1930	1
5	2128	1940	1
5	2139	1950	1
5	2150	1960	1
5	2161	1970	1
5	2172	1980	1
5	2183	1990	1
5	2194	2000	1
5	2205	2010	1
5	2216	2020	1
5	2227	2030	1
5	2238	2040	1
5	2249	2050	1
5	2260	2060	1
5	2271	2070	1
5	2282	2080	1
5	2293	2090	1
5	2304	2100	1
5	2315	2110	1
5	2326	2120	1
5	2337	2130	1
5	2348	2140	1
5	2359	2150	1
5	2370	2160	1
5	2381	2170	1
5	2392	2180	1
5	2403	2190	1
5	2414	2200	1
5	2425	2210	1
5	2436	2220	1
5	2447	2230	1
5	2458	2240	1
5	2469	2250	1
5	2480	2260	1
5	2491	2270	1
5	2502	2280	1
5	2513	2290	1
5	2524	2300	1
5	2535	2310	1
5	2546	2320	1
5	2557	2330	1
5	2568	2340	1
5	2579	2350	1
5	2590	2360	1
5	2601	2370	1
5	2641	2420	1
5	2650	2430	1
5	2660	2440	1
5	2671	2450	1
5	2682	2460	1
5	2693	2470	1
5	2704	2480	1
5	2715	2490	1
5	2726	2500	1
5	2737	2510	1
5	2748	2520	1
5	2759	2530	1
5	2770	2540	1
5	2781	2550	1
5	2792	2560	1
5	2803	2570	1
5	2814	2580	1
5	2825	2590	1
5	2836	2600	1
5	2847	2610	1
5	2858	2620	1
5	2869	2630	1
5	2880	2640	1
5	2891	2650	1
5	2902	2660	1
5	2913	2670	1
5	2924	2680	1
5	2935	2690	1
5	2946	2700	1
5	2957	2710	1
5	2968	2720	1
5	2979	2730	1
5	2990	2740	1
5	3001	2750	1
5	3012	2760	1
5	3023	2770	1
5	3034	2780	1
5	3045	2790	1
5	3056	2800	1
5	3067	2810	1
5	3078	2820	1
5	3089	2830	1
5	3100	2840	1
5	3111	2850	1
5	3122	2860	1
5	3133	2870	1
5	3144	2880	1
5	3155	2890	1
5	3166	2900	1
5	3177	2910	1
5	3188	2920	1
5	3199	2930	1
5	3210	2940	1
5	3221	2950	1
5	3232	2960	1
5	3243	2970	1
5	3254	2980	1
5	3265	2990	1
5	3276	3000	1
5	3287	3010	1
5	3298	3020	1
5	3309	3030	1
5	3320	3040	1
5	3331	3050	1
5	3342	3060	1
5	3353	3070	1
5	3364	3080	1
5	3375	3090	1
5	3386	3100	1
5	3397	3110	1
5	3408	3120	1
5	3419	3130	1
5	3430	3140	1
5	3441	3150	1
5	3452	3160	1
5	3463	3170	1
5	3474	3180	1
5	3485	3190	1
5	3496	3200	1
5	3507	3210	1
5	3518	3220	1
5	3529	3230	1
5	3540	3240	1
5	3551	3250	1
5	3562	3260	1
5	3573	3270	1
5	3584	3280	1
5	3595	3290	1
5	3606	3300	1
5	3617	3310	1
5	3628	3320	1
5	3639	3330	1
5	3650	3340	1
5	3661	3350	1
5	3672	3360	1
5	3683	3370	1
5	3694	3380	1
5	3705	3390	1
5	3716	3400	1
5	3727	3410	1
5	3738	3420	1
5	3749	3430	1
5	3760	3440	1
5	3771	3450	1
5	3782	3460	1
5	3793	3470	1
5	3804	3480	1
5	3815	3490	1
5	3826	3500	1
5	3837	3510	1
5	3848	3520	1
5	3859	3530	1
5	3870	3540	1
5	3881	3550	1
5	3892	3560	1
5	3903	3570	1
5	3914	3580	1
5	3925	3590	1
5	3936	3600	1
6	18	20	1
6	29	30	1
6	40	40	1
6	51	50	1
6	62	60	1
6	73	70	1
6	84	80	1
6	95	90	1
6	106	100	1
6	117	110	1
6	128	120	1
6	139	130	1
6	150	140	1
6	161	150	1
6	172	160	1
6	183	170	1
6	194	180	1
6	205	190	1
6	216	200	1
6	227	210	1
6	238	220	1
6	249	230	1
6	260	240	1
6	271	250	1
6	282	260	1
6	293	270	1
6	304	280	1
6	315	290	1
6	326	300	1
6	337	310	1
6	348	320	1
6	359	330	1
6	370	340	1
6	381	350	1
6	392	360	1
6	403	370	1
6	414	380	1
6	425	390	1
6	436	400	1
6	447	410	1
6	458	420	1
6	469	430	1
6	480	440	1
6	491	450	1
6	502	460	1
6	513	470	1
6	524	480	1
6	535	490	1
6	546	500	1
6	557	510	1
6	568	520	1
6	579	530	1
6	590	540	1
6	601	550	1
6	612	560	1
6	623	570	1
6	634	580	1
6	645	590	1
6	656	600	1
6	667	610	1
6	678	620	1
6	689	630	1
6	700	640	1
6	711	650	1
6	722	660	1
6	733	670	1
6	744	680	1
6	755	690	1
6	766	700	1
6	777	710	1
6	788	720	1
6	799	730	1
6	810	740	1
6	821	750	1
6	832	760	1
6	843	770	1
6	854	780	1
6	865	790	1
6	876	800	1
6	887	810	1
6	898	820	1
6	909	830	1
6	920	840	1
6	931	850	1
6	942	860	1
6	953	870	1
6	964	880	1
6	975	890	1
6	986	900	1
6	997	910	1
6	1008	920	1
6	1019	930	1
6	1030	940	1
6	1041	950	1
6	1052	960	1
6	1063	970	1
6	1074	980	1
6	1085	990	1
6	1096	1000	1
6	1107	1010	1
6	1118	1020	1
6	1129	1030	1
6	1140	1040	1
6	1151	1050	1
6	1162	1060	1
6	1173	1070	1
6	1184	1080	1
6	1195	1090	1
6	1206	1100	1
6	1217	1110	1
6	1228	1120	1
6	1239	1130	1
6	1250	1140	1
6	1261	1150	1
6	1272	1160	1
6	1283	1170	1
6	1294	1180	1
6	1305	1190	1
6	1316	1200	1
6	1327	1210	1
6	1338	1220	1
6	1349	1230	1
6	1360	1240	1
6	1371	1250	1
6	1382	1260	1
6	1393	1270	1
6	1404	1280	1
6	1415	1290	1
6	1426	1300	1
6	1437	1310	1
6	1448	1320	1
6	1459	1330	1
6	1470	1340	1
6	1481	1350	1
6	1492	1360	1
6	1503	1370	1
6	1514	1380	1
6	1525	1390	1
6	1536	1400	1
6	1547	1410	1
6	1558	1420	1
6	1569	1430	1
6	1580	1440	1
6	1591	1450	1
6	1602	1460	1
6	1613	1470	1
6	1624	1480	1
6	1635	1490	1
6	1646	1500	1
6	1657	1510	1
6	1668	1520	1
6	1679	1530	1
6	1690	1540	1
6	1701	1550	1
6	1712	1560	1
6	1723	1570	1
6	1734	1580	1
6	1745	1590	1
6	1756	1600	1
6	1767	1610	1
6	1778	1620	1
6	1789	1630	1
6	1800	1640	1
6	1811	1650	1
6	1822	1660	1
6	1833	1670	1
6	1844	1680	1
6	1855	1690	1
6	1866	1700	1
6	1877	1710	1
6	1888	1720	1
6	1899	1730	1
6	1910	1740	1
6	1921	1750	1
6	1932	1760	1
6	1943	1770	1
6	1954	1780	1
6	1965	1790	1
6	1976	1800	1
6	1987	1810	1
6	1998	1820	1
6	2009	1830	1
6	2020	1840	1
6	2031	1850	1
6	2042	1860	1
6	2053	1870	1
6	2064	1880	1
6	2075	1890	1
6	2086	1900	1
6	2097	1910	1
6	2108	1920	1
6	2119	1930	1
6	2130	1940	1
6	2141	1950	1
6	2152	1960	1
6	2163	1970	1
6	2174	1980	1
6	2185	1990	1
6	2196	2000	1
6	2207	2010	1
6	2218	2020	1
6	2229	2030	1
6	2240	2040	1
6	2251	2050	1
6	2262	2060	1
6	2273	2070	1
6	2284	2080	1
6	2295	2090	1
6	2306	2100	1
6	2317	2110	1
6	2328	2120	1
6	2339	2130	1
6	2350	2140	1
6	2361	2150	1
6	2372	2160	1
6	2383	2170	1
6	2394	2180	1
6	2405	2190	1
6	2416	2200	1
6	2427	2210	1
6	2438	2220	1
6	2449	2230	1
6	2460	2240	1
6	2471	2250	1
6	2482	2260	1
6	2493	2270	1
6	2504	2280	1
6	2515	2290	1
6	2526	2300	1
6	2537	2310	1
6	2548	2320	1
6	2559	2330	1
6	2570	2340	1
6	2581	2350	1
6	2592	2360	1
6	2603	2370	1
6	2662	2440	1
6	2673	2450	1
6	2684	2460	1
6	2695	2470	1
6	2706	2480	1
6	2717	2490	1
6	2728	2500	1
6	2739	2510	1
6	2750	2520	1
6	2761	2530	1
6	2772	2540	1
6	2783	2550	1
6	2794	2560	1
6	2805	2570	1
6	2816	2580	1
6	2827	2590	1
6	2838	2600	1
6	2849	2610	1
6	2860	2620	1
6	2871	2630	1
6	2882	2640	1
6	2893	2650	1
6	2904	2660	1
6	2915	2670	1
6	2926	2680	1
6	2937	2690	1
6	2948	2700	1
6	2959	2710	1
6	2970	2720	1
6	2981	2730	1
6	2992	2740	1
6	3003	2750	1
6	3014	2760	1
6	3025	2770	1
6	3036	2780	1
6	3047	2790	1
6	3058	2800	1
6	3069	2810	1
6	3080	2820	1
6	3091	2830	1
6	3102	2840	1
6	3113	2850	1
6	3124	2860	1
6	3135	2870	1
6	3146	2880	1
6	3157	2890	1
6	3168	2900	1
6	3179	2910	1
6	3190	2920	1
6	3201	2930	1
6	3212	2940	1
6	3223	2950	1
6	3234	2960	1
6	3245	2970	1
6	3256	2980	1
6	3267	2990	1
6	3278	3000	1
6	3289	3010	1
6	3300	3020	1
6	3311	3030	1
6	3322	3040	1
6	3333	3050	1
6	3344	3060	1
6	3355	3070	1
6	3366	3080	1
6	3377	3090	1
6	3388	3100	1
6	3399	3110	1
6	3410	3120	1
6	3421	3130	1
6	3432	3140	1
6	3443	3150	1
6	3454	3160	1
6	3465	3170	1
6	3476	3180	1
6	3487	3190	1
6	3498	3200	1
6	3509	3210	1
6	3520	3220	1
6	3531	3230	1
6	3542	3240	1
6	3553	3250	1
6	3564	3260	1
6	3575	3270	1
6	3586	3280	1
6	3597	3290	1
6	3608	3300	1
6	3619	3310	1
6	3630	3320	1
6	3641	3330	1
6	3652	3340	1
6	3663	3350	1
6	3674	3360	1
6	3685	3370	1
6	3696	3380	1
6	3707	3390	1
6	3718	3400	1
6	3729	3410	1
6	3740	3420	1
6	3751	3430	1
6	3762	3440	1
6	3773	3450	1
6	3784	3460	1
6	3795	3470	1
6	3806	3480	1
6	3817	3490	1
6	3828	3500	1
6	3839	3510	1
6	3850	3520	1
6	3861	3530	1
6	3872	3540	1
6	3883	3550	1
6	3894	3560	1
6	3905	3570	1
6	3916	3580	1
6	3927	3590	1
6	3938	3600	1
7	18	20	15
7	29	30	20
7	40	40	25
7	51	50	30
7	62	60	35
7	73	70	40
7	84	80	45
7	95	90	50
7	106	100	55
7	117	110	60
7	128	120	65
7	139	130	70
7	150	140	75
7	161	150	80
7	172	160	85
7	183	170	90
7	194	180	95
7	205	190	100
7	216	200	105
7	227	210	110
7	238	220	115
7	249	230	120
7	260	240	125
7	271	250	130
7	282	260	135
7	293	270	140
7	304	280	145
7	315	290	150
7	326	300	155
7	337	310	160
7	348	320	165
7	359	330	170
7	370	340	175
7	381	350	180
7	392	360	185
7	403	370	190
7	414	380	195
7	425	390	200
7	436	400	205
7	447	410	210
7	458	420	215
7	469	430	220
7	480	440	225
7	491	450	230
7	502	460	235
7	513	470	240
7	524	480	245
7	535	490	250
7	546	500	255
7	557	510	260
7	568	520	265
7	579	530	270
7	590	540	275
7	601	550	280
7	612	560	285
7	623	570	290
7	634	580	295
7	645	590	300
7	656	600	305
7	667	610	310
7	678	620	315
7	689	630	320
7	700	640	325
7	711	650	330
7	722	660	335
7	733	670	340
7	744	680	345
7	755	690	350
7	766	700	355
7	777	710	360
7	788	720	365
7	799	730	370
7	810	740	375
7	821	750	380
7	832	760	385
7	843	770	390
7	854	780	395
7	865	790	400
7	876	800	405
7	887	810	410
7	898	820	415
7	909	830	420
7	920	840	425
7	931	850	430
7	942	860	435
7	953	870	440
7	964	880	445
7	975	890	450
7	986	900	455
7	997	910	460
7	1008	920	465
7	1019	930	470
7	1030	940	475
7	1041	950	480
7	1052	960	485
7	1063	970	490
7	1074	980	495
7	1085	990	500
7	1096	1000	505
7	1107	1010	510
7	1118	1020	515
7	1129	1030	520
7	1140	1040	525
7	1151	1050	530
7	1162	1060	535
7	1173	1070	540
7	1184	1080	545
7	1195	1090	550
7	1206	1100	555
7	1217	1110	560
7	1228	1120	565
7	1239	1130	570
7	1250	1140	575
7	1261	1150	580
7	1272	1160	585
7	1283	1170	590
7	1294	1180	595
7	1305	1190	600
7	1316	1200	605
7	1327	1210	610
7	1338	1220	615
7	1349	1230	620
7	1360	1240	625
7	1371	1250	630
7	1382	1260	635
7	1393	1270	640
7	1404	1280	645
7	1415	1290	650
7	1426	1300	655
7	1437	1310	660
7	1448	1320	665
7	1459	1330	670
7	1470	1340	675
7	1481	1350	680
7	1492	1360	685
7	1503	1370	690
7	1514	1380	695
7	1525	1390	700
7	1536	1400	705
7	1547	1410	710
7	1558	1420	715
7	1569	1430	720
7	1580	1440	725
7	1591	1450	730
7	1602	1460	735
7	1613	1470	740
7	1624	1480	745
7	1635	1490	750
7	1646	1500	755
7	1657	1510	760
7	1668	1520	765
7	1679	1530	770
7	1690	1540	775
7	1701	1550	780
7	1712	1560	785
7	1723	1570	790
7	1734	1580	795
7	1745	1590	800
7	1756	1600	805
7	1767	1610	810
7	1778	1620	815
7	1789	1630	820
7	1800	1640	825
7	1811	1650	830
7	1822	1660	835
7	1833	1670	840
7	1844	1680	845
7	1855	1690	850
7	1866	1700	855
7	1877	1710	860
7	1888	1720	865
7	1899	1730	870
7	1910	1740	875
7	1921	1750	880
7	1932	1760	885
7	1943	1770	890
7	1954	1780	895
7	1965	1790	900
7	1976	1800	905
7	1987	1810	910
7	1998	1820	915
7	2009	1830	920
7	2020	1840	925
7	2031	1850	930
7	2042	1860	935
7	2053	1870	940
7	2064	1880	945
7	2075	1890	950
7	2086	1900	955
7	2097	1910	960
7	2108	1920	965
7	2119	1930	970
7	2130	1940	975
7	2141	1950	980
7	2152	1960	985
7	2163	1970	990
7	2174	1980	995
7	2185	1990	1000
7	2196	2000	1005
7	2207	2010	1010
7	2218	2020	1015
7	2229	2030	1020
7	2240	2040	1025
7	2251	2050	1030
7	2262	2060	1035
7	2273	2070	1040
7	2284	2080	1045
7	2295	2090	1050
7	2306	2100	1055
7	2317	2110	1060
7	2328	2120	1065
7	2339	2130	1070
7	2350	2140	1075
7	2361	2150	1080
7	2372	2160	1085
7	2383	2170	1090
7	2394	2180	1095
7	2405	2190	1100
7	2416	2200	1105
7	2427	2210	1110
7	2438	2220	1115
7	2449	2230	1120
7	2460	2240	1125
7	2471	2250	1130
7	2482	2260	1135
7	2493	2270	1140
7	2504	2280	1145
7	2515	2290	1150
7	2526	2300	1155
7	2537	2310	1160
7	2548	2320	1165
7	2559	2330	1170
7	2570	2340	1175
7	2581	2350	1180
7	2592	2360	1185
7	2603	2370	1190
7	2662	2440	1255
7	2673	2450	1260
7	2684	2460	1265
7	2695	2470	1270
7	2706	2480	1275
7	2717	2490	1280
7	2728	2500	1285
7	2739	2510	1290
7	2750	2520	1295
7	2761	2530	1300
7	2772	2540	1305
7	2783	2550	1310
7	2794	2560	1315
7	2805	2570	1320
7	2816	2580	1325
7	2827	2590	1330
7	2838	2600	1335
7	2849	2610	1340
7	2860	2620	1345
7	2871	2630	1350
7	2882	2640	1355
7	2893	2650	1360
7	2904	2660	1365
7	2915	2670	1370
7	2926	2680	1375
7	2937	2690	1380
7	2948	2700	1385
7	2959	2710	1390
7	2970	2720	1395
7	2981	2730	1400
7	2992	2740	1405
7	3003	2750	1410
7	3014	2760	1415
7	3025	2770	1420
7	3036	2780	1425
7	3047	2790	1430
7	3058	2800	1435
7	3069	2810	1440
7	3080	2820	1445
7	3091	2830	1450
7	3102	2840	1455
7	3113	2850	1460
7	3124	2860	1465
7	3135	2870	1470
7	3146	2880	1475
7	3157	2890	1480
7	3168	2900	1485
7	3179	2910	1490
7	3190	2920	1495
7	3201	2930	1500
7	3212	2940	1505
7	3223	2950	1510
7	3234	2960	1515
7	3245	2970	1520
7	3256	2980	1525
7	3267	2990	1530
7	3278	3000	1535
7	3289	3010	1540
7	3300	3020	1545
7	3311	3030	1550
7	3322	3040	1555
7	3333	3050	1560
7	3344	3060	1565
7	3355	3070	1570
7	3366	3080	1575
7	3377	3090	1580
7	3388	3100	1585
7	3399	3110	1590
7	3410	3120	1595
7	3421	3130	1600
7	3432	3140	1605
7	3443	3150	1610
7	3454	3160	1615
7	3465	3170	1620
7	3476	3180	1625
7	3487	3190	1630
7	3498	3200	1635
7	3509	3210	1640
7	3520	3220	1645
7	3531	3230	1650
7	3542	3240	1655
7	3553	3250	1660
7	3564	3260	1665
7	3575	3270	1670
7	3586	3280	1675
7	3597	3290	1680
7	3608	3300	1685
7	3619	3310	1690
7	3630	3320	1695
7	3641	3330	1700
7	3652	3340	1705
7	3663	3350	1710
7	3674	3360	1715
7	3685	3370	1720
7	3696	3380	1725
7	3707	3390	1730
7	3718	3400	1735
7	3729	3410	1740
7	3740	3420	1745
7	3751	3430	1750
7	3762	3440	1755
7	3773	3450	1760
7	3784	3460	1765
7	3795	3470	1770
7	3806	3480	1775
7	3817	3490	1780
7	3828	3500	1785
7	3839	3510	1790
7	3850	3520	1795
7	3861	3530	1800
7	3872	3540	1805
7	3883	3550	1810
7	3894	3560	1815
7	3905	3570	1820
7	3916	3580	1825
7	3927	3590	1830
7	3938	3600	1835
8	18	20	0
8	29	30	1
8	40	40	1
8	51	50	1
8	62	60	1
8	73	70	1
8	84	80	1
8	95	90	1
8	106	100	1
8	117	110	1
8	128	120	1
8	139	130	1
8	150	140	1
8	161	150	1
8	172	160	1
8	183	170	1
8	194	180	1
8	205	190	1
8	216	200	1
8	227	210	1
8	238	220	1
8	249	230	1
8	260	240	1
8	271	250	1
8	282	260	1
8	293	270	1
8	304	280	1
8	315	290	1
8	326	300	1
8	337	310	1
8	348	320	1
8	359	330	1
8	370	340	1
8	381	350	1
8	392	360	1
8	403	370	1
8	414	380	1
8	425	390	1
8	436	400	1
8	447	410	1
8	458	420	1
8	469	430	1
8	480	440	1
8	491	450	1
8	502	460	1
8	513	470	1
8	524	480	1
8	535	490	1
8	546	500	1
8	557	510	1
8	568	520	1
8	579	530	1
8	590	540	1
8	601	550	1
8	612	560	1
8	623	570	1
8	634	580	1
8	645	590	1
8	656	600	1
8	667	610	1
8	678	620	1
8	689	630	1
8	700	640	1
8	711	650	1
8	722	660	1
8	733	670	1
8	744	680	1
8	755	690	1
8	766	700	1
8	777	710	1
8	788	720	1
8	799	730	1
8	810	740	1
8	821	750	1
8	832	760	1
8	843	770	1
8	854	780	1
8	865	790	1
8	876	800	1
8	887	810	1
8	898	820	1
8	909	830	1
8	920	840	1
8	931	850	1
8	942	860	1
8	953	870	1
8	964	880	1
8	975	890	1
8	986	900	1
8	997	910	1
8	1008	920	1
8	1019	930	1
8	1030	940	1
8	1041	950	1
8	1052	960	1
8	1063	970	1
8	1074	980	1
8	1085	990	1
8	1096	1000	1
8	1107	1010	1
8	1118	1020	1
8	1129	1030	1
8	1140	1040	1
8	1151	1050	1
8	1162	1060	1
8	1173	1070	1
8	1184	1080	1
8	1195	1090	1
8	1206	1100	1
8	1217	1110	1
8	1228	1120	1
8	1239	1130	1
8	1250	1140	1
8	1261	1150	1
8	1272	1160	1
8	1283	1170	1
8	1294	1180	1
8	1305	1190	1
8	1316	1200	1
8	1327	1210	1
8	1338	1220	1
8	1349	1230	1
8	1360	1240	1
8	1371	1250	1
8	1382	1260	1
8	1393	1270	1
8	1404	1280	1
8	1415	1290	1
8	1426	1300	1
8	1437	1310	1
8	1448	1320	1
8	1459	1330	1
8	1470	1340	1
8	1481	1350	1
8	1492	1360	1
8	1503	1370	1
8	1514	1380	1
8	1525	1390	1
8	1536	1400	1
8	1547	1410	1
8	1558	1420	1
8	1569	1430	1
8	1580	1440	1
8	1591	1450	1
8	1602	1460	1
8	1613	1470	1
8	1624	1480	1
8	1635	1490	1
8	1646	1500	1
8	1657	1510	1
8	1668	1520	1
8	1679	1530	1
8	1690	1540	1
8	1701	1550	1
8	1712	1560	1
8	1723	1570	1
8	1734	1580	1
8	1745	1590	1
8	1756	1600	1
8	1767	1610	1
8	1778	1620	1
8	1789	1630	1
8	1800	1640	1
8	1811	1650	1
8	1822	1660	1
8	1833	1670	1
8	1844	1680	1
8	1855	1690	1
8	1866	1700	1
8	1877	1710	1
8	1888	1720	1
8	1899	1730	1
8	1910	1740	1
8	1921	1750	1
8	1932	1760	1
8	1943	1770	1
8	1954	1780	1
8	1965	1790	1
8	1976	1800	1
8	1987	1810	1
8	1998	1820	1
8	2009	1830	1
8	2020	1840	1
8	2031	1850	1
8	2042	1860	1
8	2053	1870	1
8	2064	1880	1
8	2075	1890	1
8	2086	1900	1
8	2097	1910	1
8	2108	1920	1
8	2119	1930	1
8	2130	1940	1
8	2141	1950	1
8	2152	1960	1
8	2163	1970	1
8	2174	1980	1
8	2185	1990	1
8	2196	2000	1
8	2207	2010	1
8	2218	2020	1
8	2229	2030	1
8	2240	2040	1
8	2251	2050	1
8	2262	2060	1
8	2273	2070	1
8	2284	2080	1
8	2295	2090	1
8	2306	2100	1
8	2317	2110	1
8	2328	2120	1
8	2339	2130	1
8	2350	2140	1
8	2361	2150	1
8	2372	2160	1
8	2383	2170	1
8	2394	2180	1
8	2405	2190	1
8	2416	2200	1
8	2427	2210	1
8	2438	2220	1
8	2449	2230	1
8	2460	2240	1
8	2471	2250	1
8	2482	2260	1
8	2493	2270	1
8	2504	2280	1
8	2515	2290	1
8	2526	2300	1
8	2537	2310	1
8	2548	2320	1
8	2559	2330	1
8	2570	2340	1
8	2581	2350	1
8	2592	2360	1
8	2603	2370	1
8	2662	2440	1
8	2673	2450	1
8	2684	2460	1
8	2695	2470	1
8	2706	2480	1
8	2717	2490	1
8	2728	2500	1
8	2739	2510	1
8	2750	2520	1
8	2761	2530	1
8	2772	2540	1
8	2783	2550	1
8	2794	2560	1
8	2805	2570	1
8	2816	2580	1
8	2827	2590	1
8	2838	2600	1
8	2849	2610	1
8	2860	2620	1
8	2871	2630	1
8	2882	2640	1
8	2893	2650	1
8	2904	2660	1
8	2915	2670	1
8	2926	2680	1
8	2937	2690	1
8	2948	2700	1
8	2959	2710	1
8	2970	2720	1
8	2981	2730	1
8	2992	2740	1
8	3003	2750	1
8	3014	2760	1
8	3025	2770	1
8	3036	2780	1
8	3047	2790	1
8	3058	2800	1
8	3069	2810	1
8	3080	2820	1
8	3091	2830	1
8	3102	2840	1
8	3113	2850	1
8	3124	2860	1
8	3135	2870	1
8	3146	2880	1
8	3157	2890	1
8	3168	2900	1
8	3179	2910	1
8	3190	2920	1
8	3201	2930	1
8	3212	2940	1
8	3223	2950	1
8	3234	2960	1
8	3245	2970	1
8	3256	2980	1
8	3267	2990	1
8	3278	3000	1
8	3289	3010	1
8	3300	3020	1
8	3311	3030	1
8	3322	3040	1
8	3333	3050	1
8	3344	3060	1
8	3355	3070	1
8	3366	3080	1
8	3377	3090	1
8	3388	3100	1
8	3399	3110	1
8	3410	3120	1
8	3421	3130	1
8	3432	3140	1
8	3443	3150	1
8	3454	3160	1
8	3465	3170	1
8	3476	3180	1
8	3487	3190	1
8	3498	3200	1
8	3509	3210	1
8	3520	3220	1
8	3531	3230	1
8	3542	3240	1
8	3553	3250	1
8	3564	3260	1
8	3575	3270	1
8	3586	3280	1
8	3597	3290	1
8	3608	3300	1
8	3619	3310	1
8	3630	3320	1
8	3641	3330	1
8	3652	3340	1
8	3663	3350	1
8	3674	3360	1
8	3685	3370	1
8	3696	3380	1
8	3707	3390	1
8	3718	3400	1
8	3729	3410	1
8	3740	3420	1
8	3751	3430	1
8	3762	3440	1
8	3773	3450	1
8	3784	3460	1
8	3795	3470	1
8	3806	3480	1
8	3817	3490	1
8	3828	3500	1
8	3839	3510	1
8	3850	3520	1
8	3861	3530	1
8	3872	3540	1
8	3883	3550	1
8	3894	3560	1
8	3905	3570	1
8	3916	3580	1
8	3927	3590	1
8	3938	3600	1

