version 2
run ContinuityTest1b-0-20210121-10:49:20-6930
attr configname ContinuityTest1b
attr datetime 20210121-10:49:20
attr experiment ContinuityTest1b
attr inifile omnetpp.ini
attr iterationvars ""
attr iterationvarsf ""
attr measurement ""
attr network slottedNetwork
attr processid 6930
attr repetition 0
attr replication #0
attr resultdir results
attr runnumber 0
attr seedset 0
param **.numTransmitters 10
param **.numChannels 20
param **.sendProbability 1
param **.expMean 10s
param **.timeSlotSize 5s
param **.thresh 20s
param **.deterministicInterarrivalTime true
param **.numTransmitters 1
param **.numChannels 1
param **.sendProbability 1
param **.expMean 5s
param **.timeSlotSize 5s
param **.thresh 20s
param **.deterministicInterarrivalTime false

vector 0 slottedNetwork.ch throughput:vector ETV
attr source throughputSignal
vector 1 slottedNetwork.transmitters[0] numPacketOnBuffer:vector ETV
attr source numPacketOnBufferSignal
vector 2 slottedNetwork.transmitters[1] numPacketOnBuffer:vector ETV
attr source numPacketOnBufferSignal
vector 3 slottedNetwork.transmitters[2] numPacketOnBuffer:vector ETV
attr source numPacketOnBufferSignal
vector 4 slottedNetwork.transmitters[3] numPacketOnBuffer:vector ETV
attr source numPacketOnBufferSignal
vector 5 slottedNetwork.transmitters[4] numPacketOnBuffer:vector ETV
attr source numPacketOnBufferSignal
vector 6 slottedNetwork.transmitters[5] numPacketOnBuffer:vector ETV
attr source numPacketOnBufferSignal
vector 7 slottedNetwork.transmitters[6] numPacketOnBuffer:vector ETV
attr source numPacketOnBufferSignal
vector 8 slottedNetwork.transmitters[7] numPacketOnBuffer:vector ETV
attr source numPacketOnBufferSignal
vector 9 slottedNetwork.transmitters[8] numPacketOnBuffer:vector ETV
attr source numPacketOnBufferSignal
vector 10 slottedNetwork.transmitters[9] numPacketOnBuffer:vector ETV
attr source numPacketOnBufferSignal
vector 11 slottedNetwork.transmitters[0] numPacketCreated:vector ETV
attr source numPacketCreatedSignal
vector 12 slottedNetwork.transmitters[1] numPacketCreated:vector ETV
attr source numPacketCreatedSignal
vector 13 slottedNetwork.transmitters[2] numPacketCreated:vector ETV
attr source numPacketCreatedSignal
vector 14 slottedNetwork.transmitters[3] numPacketCreated:vector ETV
attr source numPacketCreatedSignal
vector 15 slottedNetwork.transmitters[4] numPacketCreated:vector ETV
attr source numPacketCreatedSignal
vector 16 slottedNetwork.transmitters[5] numPacketCreated:vector ETV
attr source numPacketCreatedSignal
vector 17 slottedNetwork.transmitters[6] numPacketCreated:vector ETV
attr source numPacketCreatedSignal
vector 18 slottedNetwork.transmitters[7] numPacketCreated:vector ETV
attr source numPacketCreatedSignal
vector 19 slottedNetwork.transmitters[8] numPacketCreated:vector ETV
attr source numPacketCreatedSignal
vector 20 slottedNetwork.transmitters[9] numPacketCreated:vector ETV
attr source numPacketCreatedSignal
vector 21 slottedNetwork.ch collisions:vector ETV
attr source collisionSignal
vector 22 slottedNetwork.ch wholeResponseTime:vector ETV
attr source wholeResponseTimeSignal
vector 23 slottedNetwork.receivers[1] numPacketReceived:vector ETV
attr source numPacketReceivedSignal
vector 24 slottedNetwork.receivers[1] responseTime:vector ETV
attr source responseTimeSignal
vector 25 slottedNetwork.receivers[1] threshold:vector ETV
attr source thresholdSignal
vector 26 slottedNetwork.receivers[2] numPacketReceived:vector ETV
attr source numPacketReceivedSignal
vector 27 slottedNetwork.receivers[2] responseTime:vector ETV
attr source responseTimeSignal
vector 28 slottedNetwork.receivers[2] threshold:vector ETV
attr source thresholdSignal
vector 29 slottedNetwork.receivers[5] numPacketReceived:vector ETV
attr source numPacketReceivedSignal
vector 30 slottedNetwork.receivers[5] responseTime:vector ETV
attr source responseTimeSignal
vector 31 slottedNetwork.receivers[5] threshold:vector ETV
attr source thresholdSignal
vector 32 slottedNetwork.receivers[8] numPacketReceived:vector ETV
attr source numPacketReceivedSignal
vector 33 slottedNetwork.receivers[8] responseTime:vector ETV
attr source responseTimeSignal
vector 34 slottedNetwork.receivers[8] threshold:vector ETV
attr source thresholdSignal
vector 35 slottedNetwork.receivers[9] numPacketReceived:vector ETV
attr source numPacketReceivedSignal
vector 36 slottedNetwork.receivers[9] responseTime:vector ETV
attr source responseTimeSignal
vector 37 slottedNetwork.receivers[9] threshold:vector ETV
attr source thresholdSignal
vector 38 slottedNetwork.receivers[4] numPacketReceived:vector ETV
attr source numPacketReceivedSignal
vector 39 slottedNetwork.receivers[4] responseTime:vector ETV
attr source responseTimeSignal
vector 40 slottedNetwork.receivers[4] threshold:vector ETV
attr source thresholdSignal
vector 41 slottedNetwork.receivers[6] numPacketReceived:vector ETV
attr source numPacketReceivedSignal
vector 42 slottedNetwork.receivers[6] responseTime:vector ETV
attr source responseTimeSignal
vector 43 slottedNetwork.receivers[6] threshold:vector ETV
attr source thresholdSignal
vector 44 slottedNetwork.receivers[0] numPacketReceived:vector ETV
attr source numPacketReceivedSignal
vector 45 slottedNetwork.receivers[0] responseTime:vector ETV
attr source responseTimeSignal
vector 46 slottedNetwork.receivers[0] threshold:vector ETV
attr source thresholdSignal
vector 47 slottedNetwork.receivers[3] numPacketReceived:vector ETV
attr source numPacketReceivedSignal
vector 48 slottedNetwork.receivers[3] responseTime:vector ETV
attr source responseTimeSignal
vector 49 slottedNetwork.receivers[3] threshold:vector ETV
attr source thresholdSignal
vector 50 slottedNetwork.receivers[7] numPacketReceived:vector ETV
attr source numPacketReceivedSignal
vector 51 slottedNetwork.receivers[7] responseTime:vector ETV
attr source responseTimeSignal
vector 52 slottedNetwork.receivers[7] threshold:vector ETV
attr source thresholdSignal
0	1	5	0
0	22	10	0
0	43	15	5
0	69	20	0
0	85	25	5
0	113	30	2
0	134	35	6
0	163	40	2
0	184	45	6
0	212	50	1
0	231	55	7
0	261	60	2
0	283	65	6
0	313	70	3
0	333	75	4
0	362	80	2
0	380	85	5
0	410	90	4
0	432	95	7
0	465	100	5
0	490	105	5
0	518	110	2
0	537	115	6
0	568	120	4
0	591	125	6
0	623	130	3
0	643	135	6
0	673	140	3
0	693	145	3
0	719	150	2
0	737	155	5
0	767	160	2
0	786	165	6
0	818	170	3
0	839	175	3
0	866	180	1
0	880	185	2
0	904	190	1
0	922	195	3
0	949	200	3
0	968	205	3
0	995	210	3
0	1013	215	4
0	1042	220	4
0	1065	225	5
0	1096	230	3
0	1114	235	4
0	1143	240	2
0	1159	245	3
0	1186	250	3
0	1206	255	4
0	1236	260	5
0	1258	265	6
0	1292	270	7
0	1319	275	6
0	1351	280	3
0	1370	285	5
0	1400	290	4
0	1422	295	5
0	1453	300	3
0	1471	305	4
0	1500	310	2
0	1517	315	4
0	1547	320	3
0	1566	325	5
0	1597	330	5
0	1620	335	3
0	1647	340	3
0	1665	345	4
0	1694	350	4
0	1717	355	2
0	1743	360	3
0	1761	365	4
0	1792	370	4
0	1812	375	5
0	1844	380	6
0	1870	385	7
0	1906	390	6
0	1929	395	6
0	1962	400	6
0	1986	405	5
0	2018	410	2
0	2035	415	4
0	2065	420	5
0	2087	425	6
0	2121	430	3
0	2140	435	5
0	2172	440	3
0	2189	445	3
0	2217	450	4
0	2238	455	6
0	2273	460	5
0	2296	465	5
0	2326	470	4
0	2346	475	5
0	2376	480	4
0	2398	485	5
0	2430	490	2
0	2447	495	4
0	2476	500	4
0	2496	505	5
0	2528	510	6
0	2553	515	4
0	2583	520	3
0	2600	525	3
0	2629	530	5
0	2651	535	6
0	2686	540	6
0	2709	545	6
0	2744	550	6
0	2767	555	4
0	2796	560	2
0	2811	565	2
0	2840	570	2
0	2855	575	0
0	2877	580	1
0	2895	585	4
0	2924	590	4
0	2945	595	6
0	2978	600	6
0	3003	605	6
0	3036	610	4
0	3055	615	2
0	3082	620	4
0	3103	625	4
0	3133	630	3
0	3152	635	3
0	3181	640	3
0	3198	645	3
0	3226	650	4
0	3247	655	4
0	3277	660	5
0	3300	665	7
0	3336	670	6
0	3360	675	5
0	3391	680	5
0	3414	685	5
0	3446	690	2
0	3461	695	2
0	3488	700	2
0	3505	705	4
0	3534	710	4
0	3554	715	3
0	3584	720	6
0	3607	725	6
0	3642	730	6
0	3666	735	5
0	3696	740	4
0	3717	745	4
0	3746	750	4
0	3768	755	5
0	3800	760	4
0	3820	765	5
0	3850	770	4
0	3873	775	4
0	3903	780	3
0	3920	785	3
0	3949	790	3
0	3967	795	4
0	3998	800	4
0	4018	805	3
0	4044	810	2
0	4062	815	5
0	4093	820	5
0	4115	825	4
0	4144	830	4
0	4165	835	6
0	4197	840	5
0	4220	845	5
0	4252	850	6
0	4276	855	5
0	4308	860	2
0	4325	865	2
0	4349	870	1
0	4364	875	3
0	4392	880	4
0	4415	885	6
0	4450	890	6
0	4473	895	4
0	4502	900	4
0	4521	905	4
0	4552	910	4
0	4571	915	2
0	4599	920	5
0	4620	925	5
0	4653	930	1
0	4667	935	2
0	4694	940	2
0	4711	945	2
0	4736	950	2
0	4753	955	4
0	4783	960	3
0	4802	965	3
0	4831	970	5
0	4853	975	6
0	4887	980	5
0	4910	985	5
0	4941	990	3
0	4960	995	5
0	4992	1000	4
0	5014	1005	5
0	5045	1010	5
0	5066	1015	5
0	5099	1020	3
0	5118	1025	1
0	5142	1030	2
0	5158	1035	3
0	5187	1040	5
0	5210	1045	7
0	5246	1050	6
0	5271	1055	5
0	5302	1060	5
0	5323	1065	5
0	5355	1070	4
0	5374	1075	2
0	5401	1080	4
0	5421	1085	1
0	5444	1090	1
0	5460	1095	2
0	5488	1100	5
0	5511	1105	5
0	5543	1110	4
0	5563	1115	5
0	5594	1120	5
0	5616	1125	4
0	5646	1130	3
0	5665	1135	2
0	5691	1140	3
0	5709	1145	4
0	5740	1150	6
0	5764	1155	4
0	5794	1160	5
0	5816	1165	3
0	5844	1170	4
0	5864	1175	5
0	5897	1180	5
0	5919	1185	6
0	5953	1190	7
0	5979	1195	4
0	6008	1200	4
0	6028	1205	5
0	6060	1210	4
0	6080	1215	3
0	6107	1220	3
0	6127	1225	4
0	6158	1230	6
0	6182	1235	5
0	6215	1240	5
0	6236	1245	5
0	6268	1250	3
0	6287	1255	3
0	6315	1260	2
0	6331	1265	3
0	6358	1270	1
0	6372	1275	2
0	6399	1280	4
0	6422	1285	8
0	6461	1290	6
0	6484	1295	2
0	6509	1300	2
0	6527	1305	5
0	6558	1310	5
0	6581	1315	5
0	6614	1320	3
0	6632	1325	4
0	6662	1330	3
0	6680	1335	4
0	6710	1340	5
0	6733	1345	5
0	6766	1350	5
0	6787	1355	5
0	6818	1360	5
0	6840	1365	4
0	6869	1370	4
0	6890	1375	6
0	6924	1380	5
0	6945	1385	3
0	6972	1390	3
0	6991	1395	5
0	7022	1400	5
0	7044	1405	2
0	7071	1410	2
0	7087	1415	3
0	7114	1420	3
0	7132	1425	4
0	7162	1430	5
0	7186	1435	5
0	7217	1440	5
0	7239	1445	2
0	7264	1450	2
0	7279	1455	2
0	7307	1460	3
0	7325	1465	4
0	7355	1470	3
0	7375	1475	3
0	7402	1480	3
0	7419	1485	3
0	7448	1490	5
0	7471	1495	5
0	7503	1500	4
0	7523	1505	3
0	7550	1510	3
0	7568	1515	2
0	7595	1520	4
0	7616	1525	4
0	7646	1530	3
0	7664	1535	4
0	7696	1540	5
0	7717	1545	5
0	7749	1550	6
0	7774	1555	6
0	7808	1560	7
0	7833	1565	7
0	7870	1570	5
0	7892	1575	4
0	7921	1580	4
0	7941	1585	3
0	7969	1590	2
0	7986	1595	4
0	8016	1600	3
0	8034	1605	4
0	8064	1610	3
0	8082	1615	4
0	8113	1620	4
0	8133	1625	5
0	8165	1630	6
0	8190	1635	4
0	8219	1640	2
0	8235	1645	3
0	8263	1650	2
0	8278	1655	2
0	8306	1660	5
0	8329	1665	5
0	8362	1670	7
0	8388	1675	8
0	8426	1680	4
0	8445	1685	4
0	8474	1690	4
0	8496	1695	3
0	8524	1700	2
0	8539	1705	2
0	8566	1710	4
0	8585	1715	4
0	8615	1720	3
0	8635	1725	1
0	8660	1730	3
0	8677	1735	3
0	8708	1740	5
0	8729	1745	3
0	8758	1750	3
0	8777	1755	3
0	8804	1760	3
0	8821	1765	3
0	8849	1770	4
0	8869	1775	5
0	8901	1780	6
0	8926	1785	4
0	8955	1790	2
0	8971	1795	1
0	8994	1800	1
0	9009	1805	1
0	9033	1810	2
0	9051	1815	5
0	9084	1820	5
0	9105	1825	3
0	9133	1830	4
0	9153	1835	3
0	9181	1840	4
0	9201	1845	5
0	9234	1850	1
0	9248	1855	2
0	9275	1860	4
0	9296	1865	4
0	9325	1870	4
0	9345	1875	3
0	9373	1880	2
0	9389	1885	3
0	9416	1890	3
0	9436	1895	4
0	9466	1900	3
0	9485	1905	3
0	9512	1910	3
0	9531	1915	3
0	9560	1920	2
0	9577	1925	4
0	9607	1930	5
0	9630	1935	5
0	9661	1940	5
0	9684	1945	3
0	9711	1950	3
0	9729	1955	4
0	9759	1960	3
0	9778	1965	3
0	9806	1970	2
0	9823	1975	2
0	9849	1980	3
0	9867	1985	2
0	9894	1990	2
0	9910	1995	3
0	9939	2000	3
0	9957	2005	4
0	9987	2010	5
0	10009	2015	2
0	10034	2020	2
0	10052	2025	3
0	10081	2030	5
0	10102	2035	5
0	10135	2040	3
0	10154	2045	5
0	10185	2050	3
0	10203	2055	4
0	10234	2060	6
0	10258	2065	3
0	10285	2070	3
0	10304	2075	3
0	10333	2080	5
0	10355	2085	6
0	10390	2090	5
0	10411	2095	5
0	10443	2100	4
0	10463	2105	3
0	10493	2110	6
0	10517	2115	7
0	10553	2120	4
0	10573	2125	5
0	10604	2130	3
0	10623	2135	5
0	10655	2140	6
0	10679	2145	7
0	10715	2150	6
0	10739	2155	3
0	10767	2160	4
0	10787	2165	5
0	10821	2170	3
0	10838	2175	3
0	10866	2180	4
0	10887	2185	6
0	10922	2190	6
0	10946	2195	7
0	10982	2200	4
0	11001	2205	4
0	11031	2210	3
0	11050	2215	3
0	11080	2220	6
0	11104	2225	5
0	11136	2230	6
0	11160	2235	5
0	11192	2240	2
0	11208	2245	3
0	11236	2250	4
0	11258	2255	3
0	11287	2260	5
0	11309	2265	4
0	11339	2270	2
0	11355	2275	1
0	11379	2280	2
0	11395	2285	3
0	11424	2290	5
0	11448	2295	4
0	11478	2300	5
0	11500	2305	6
0	11533	2310	6
0	11556	2315	4
0	11587	2320	2
0	11603	2325	3
0	11631	2330	4
0	11651	2335	1
0	11675	2340	0
0	11687	2345	1
0	11712	2350	1
0	11727	2355	3
0	11755	2360	4
0	11774	2365	4
0	11804	2370	5
0	11826	2375	6
0	11859	2380	6
0	11884	2385	6
0	11918	2390	5
0	11939	2395	5
0	11971	2400	4
0	11991	2405	5
0	12022	2410	3
0	12040	2415	2
0	12066	2420	3
0	12087	2425	7
0	12123	2430	5
0	12145	2435	4
0	12174	2440	4
0	12193	2445	1
0	12217	2450	2
0	12232	2455	2
0	12260	2460	5
0	12284	2465	6
0	12318	2470	7
0	12344	2475	8
0	12381	2480	6
0	12404	2485	6
0	12438	2490	5
0	12460	2495	6
0	12493	2500	4
0	12513	2505	5
0	12545	2510	6
0	12569	2515	7
0	12604	2520	5
0	12626	2525	4
0	12656	2530	5
0	12679	2535	1
0	12703	2540	2
0	12719	2545	3
0	12747	2550	4
0	12767	2555	5
0	12802	2560	7
0	12827	2565	3
0	12854	2570	1
0	12867	2575	1
0	12892	2580	3
0	12910	2585	2
0	12936	2590	1
0	12951	2595	3
0	12979	2600	4
0	12999	2605	2
0	13026	2610	2
0	13041	2615	2
0	13069	2620	3
0	13086	2625	1
0	13110	2630	0
0	13123	2635	2
0	13149	2640	1
0	13164	2645	3
0	13192	2650	4
0	13213	2655	6
0	13248	2660	4
0	13268	2665	5
0	13299	2670	5
0	13321	2675	6
0	13355	2680	5
0	13377	2685	6
0	13410	2690	4
0	13429	2695	4
0	13459	2700	5
0	13480	2705	3
0	13509	2710	5
0	13530	2715	3
0	13558	2720	4
0	13577	2725	2
0	13606	2730	2
0	13622	2735	3
0	13650	2740	4
0	13669	2745	4
0	13699	2750	3
0	13717	2755	4
0	13747	2760	3
0	13765	2765	4
0	13795	2770	5
0	13818	2775	4
0	13848	2780	5
0	13869	2785	3
0	13897	2790	4
0	13917	2795	5
0	13950	2800	7
0	13977	2805	4
0	14006	2810	4
0	14025	2815	4
0	14056	2820	4
0	14075	2825	4
0	14107	2830	3
0	14126	2835	3
0	14153	2840	3
0	14170	2845	3
0	14200	2850	6
0	14225	2855	6
0	14258	2860	6
0	14282	2865	4
0	14311	2870	4
0	14331	2875	3
0	14359	2880	4
0	14379	2885	5
0	14412	2890	7
0	14437	2895	5
0	14469	2900	6
0	14493	2905	5
0	14524	2910	5
0	14545	2915	5
0	14578	2920	5
0	14601	2925	3
0	14629	2930	4
0	14649	2935	5
0	14682	2940	5
0	14703	2945	5
0	14734	2950	5
0	14756	2955	4
0	14785	2960	4
0	14804	2965	4
0	14838	2970	9
0	14868	2975	6
0	14901	2980	6
0	14924	2985	4
0	14953	2990	2
0	14969	2995	3
0	14997	3000	2
0	15017	3005	7
0	15052	3010	7
0	15078	3015	8
0	15116	3020	5
0	15137	3025	3
0	15165	3030	4
0	15184	3035	2
0	15209	3040	0
0	15223	3045	3
0	15252	3050	3
0	15270	3055	4
0	15301	3060	2
0	15318	3065	4
0	15348	3070	5
0	15369	3075	5
0	15401	3080	6
0	15426	3085	4
0	15456	3090	5
0	15478	3095	4
0	15509	3100	6
0	15533	3105	5
0	15564	3110	3
0	15582	3115	4
0	15611	3120	2
0	15629	3125	3
0	15658	3130	5
0	15680	3135	6
0	15714	3140	7
0	15739	3145	7
0	15775	3150	8
0	15803	3155	7
0	15838	3160	5
0	15860	3165	4
0	15889	3170	4
0	15908	3175	4
0	15939	3180	4
0	15960	3185	2
0	15985	3190	2
0	16002	3195	2
0	16028	3200	3
0	16046	3205	4
0	16077	3210	6
0	16102	3215	4
0	16131	3220	4
0	16151	3225	5
0	16183	3230	4
0	16204	3235	6
0	16238	3240	5
0	16259	3245	5
0	16290	3250	5
0	16314	3255	4
0	16343	3260	4
0	16363	3265	5
0	16396	3270	7
0	16421	3275	7
0	16458	3280	7
0	16483	3285	4
0	16512	3290	4
0	16531	3295	4
0	16561	3300	5
0	16583	3305	2
0	16611	3310	5
0	16632	3315	3
0	16660	3320	4
0	16680	3325	5
0	16711	3330	5
0	16734	3335	5
0	16768	3340	6
0	16791	3345	4
0	16820	3350	4
0	16839	3355	4
0	16869	3360	3
0	16889	3365	6
0	16924	3370	8
0	16952	3375	5
0	16984	3380	4
0	17003	3385	2
0	17029	3390	3
0	17047	3395	4
0	17077	3400	3
0	17097	3405	4
0	17127	3410	3
0	17146	3415	5
0	17177	3420	5
0	17200	3425	3
0	17228	3430	4
0	17248	3435	5
0	17279	3440	3
0	17297	3445	4
0	17327	3450	3
0	17346	3455	5
0	17378	3460	4
0	17400	3465	5
0	17431	3470	3
0	17449	3475	4
0	17479	3480	3
0	17496	3485	3
0	17527	3490	5
0	17549	3495	6
0	17582	3500	6
0	17607	3505	6
0	17640	3510	6
0	17664	3515	5
0	17695	3520	5
0	17717	3525	6
0	17751	3530	7
0	17777	3535	4
0	17807	3540	5
0	17829	3545	6
0	17862	3550	6
0	17887	3555	6
0	17920	3560	4
0	17941	3565	4
0	17970	3570	4
0	17990	3575	3
0	18019	3580	5
0	18041	3585	6
0	18075	3590	7
0	18102	3595	7
0	18137	3600	3
1	2	5	0
1	12	10	1
1	23	10	1
1	44	15	1
1	59	20	2
1	70	20	2
1	96	25	2
1	103	30	3
1	118	30	3
1	138	35	2
1	153	40	3
1	166	40	2
1	187	45	2
1	202	50	3
1	215	50	3
1	246	55	3
1	251	60	4
1	266	60	4
1	287	65	3
1	303	70	4
1	316	70	3
1	335	75	2
1	352	80	3
1	363	80	2
1	381	85	1
1	400	90	2
1	411	90	1
1	433	95	0
1	455	100	1
1	476	100	1
1	499	105	0
1	508	110	1
1	523	110	1
1	542	115	0
1	558	120	1
1	577	120	1
1	599	125	0
1	613	130	1
1	632	130	1
1	650	135	0
1	663	140	1
1	680	140	1
1	698	145	0
1	709	150	1
1	724	150	1
1	742	155	0
1	757	160	1
1	774	160	1
1	791	165	0
1	808	170	1
1	827	170	1
1	844	175	0
1	856	180	1
1	871	180	1
1	883	185	0
1	894	190	1
1	907	190	1
1	924	195	1
1	939	200	2
1	956	200	2
1	977	205	2
1	985	210	3
1	1000	210	2
1	1018	215	1
1	1032	220	2
1	1047	220	1
1	1070	225	0
1	1086	230	1
1	1105	230	1
1	1121	235	0
1	1133	240	1
1	1150	240	1
1	1164	245	0
1	1176	250	1
1	1193	250	1
1	1211	255	0
1	1226	260	1
1	1247	260	1
1	1269	265	0
1	1282	270	1
1	1307	270	1
1	1332	275	0
1	1341	280	1
1	1360	280	1
1	1377	285	0
1	1390	290	1
1	1409	290	1
1	1430	295	1
1	1443	300	2
1	1462	300	2
1	1480	305	2
1	1490	310	3
1	1507	310	3
1	1526	315	3
1	1537	320	4
1	1552	320	3
1	1569	325	2
1	1587	330	3
1	1600	330	2
1	1622	335	1
1	1637	340	2
1	1648	340	1
1	1666	345	0
1	1684	350	1
1	1703	350	1
1	1723	355	1
1	1733	360	2
1	1750	360	2
1	1770	365	2
1	1782	370	3
1	1803	370	3
1	1823	375	3
1	1834	380	4
1	1857	380	4
1	1882	385	4
1	1896	390	5
1	1921	390	5
1	1942	395	5
1	1952	400	6
1	1975	400	6
1	1999	405	6
1	2008	410	7
1	2027	410	7
1	2040	415	6
1	2055	420	7
1	2070	420	6
1	2092	425	5
1	2111	430	6
1	2126	430	6
1	2151	435	6
1	2162	440	7
1	2182	440	7
1	2196	445	7
1	2207	450	8
1	2226	450	8
1	2251	455	8
1	2263	460	9
1	2281	460	8
1	2301	465	8
1	2316	470	9
1	2335	470	9
1	2357	475	9
1	2366	480	10
1	2385	480	10
1	2411	485	10
1	2420	490	11
1	2439	490	11
1	2452	495	10
1	2466	500	11
1	2481	500	10
1	2501	505	9
1	2518	510	10
1	2533	510	9
1	2557	515	8
1	2573	520	9
1	2585	520	9
1	2607	525	9
1	2619	530	10
1	2640	530	10
1	2664	535	10
1	2676	540	11
1	2701	540	11
1	2722	545	11
1	2734	550	12
1	2755	550	11
1	2774	555	10
1	2786	560	11
1	2800	560	10
1	2814	565	9
1	2830	570	10
1	2842	570	10
1	2858	575	10
1	2867	580	11
1	2880	580	11
1	2897	585	10
1	2914	590	11
1	2925	590	10
1	2946	595	9
1	2968	600	10
1	2979	600	9
1	3004	605	8
1	3026	610	9
1	3037	610	8
1	3056	615	8
1	3072	620	9
1	3091	620	9
1	3114	625	9
1	3123	630	10
1	3142	630	10
1	3158	635	10
1	3171	640	11
1	3190	640	11
1	3205	645	11
1	3216	650	12
1	3235	650	12
1	3258	655	12
1	3267	660	13
1	3288	660	13
1	3311	665	12
1	3326	670	13
1	3346	670	12
1	3368	675	11
1	3381	680	12
1	3398	680	11
1	3421	685	11
1	3436	690	12
1	3455	690	12
1	3466	695	12
1	3478	700	13
1	3492	700	13
1	3514	705	13
1	3524	710	14
1	3543	710	14
1	3563	715	14
1	3574	720	15
1	3591	720	14
1	3614	725	13
1	3632	730	14
1	3647	730	14
1	3679	735	14
1	3686	740	15
1	3705	740	15
1	3728	745	15
1	3736	750	16
1	3755	750	16
1	3776	755	15
1	3790	760	16
1	3807	760	16
1	3831	765	16
1	3840	770	17
1	3859	770	17
1	3886	775	17
1	3893	780	18
1	3910	780	17
1	3925	785	16
1	3939	790	17
1	3953	790	16
1	3970	795	15
1	3988	800	16
1	4001	800	16
1	4027	805	16
1	4034	810	17
1	4049	810	17
1	4073	815	17
1	4083	820	18
1	4102	820	17
1	4123	825	17
1	4134	830	18
1	4153	830	18
1	4178	835	18
1	4187	840	19
1	4208	840	19
1	4233	845	19
1	4242	850	20
1	4261	850	19
1	4283	855	18
1	4298	860	19
1	4312	860	18
1	4327	865	18
1	4339	870	19
1	4352	870	19
1	4371	875	19
1	4382	880	20
1	4401	880	20
1	4430	885	20
1	4440	890	21
1	4461	890	20
1	4481	895	20
1	4492	900	21
1	4511	900	21
1	4530	905	21
1	4542	910	22
1	4563	910	22
1	4578	915	22
1	4589	920	23
1	4604	920	22
1	4625	925	21
1	4643	930	22
1	4657	930	22
1	4672	935	22
1	4684	940	23
1	4701	940	23
1	4718	945	23
1	4726	950	24
1	4741	950	24
1	4758	955	23
1	4773	960	24
1	4786	960	23
1	4803	965	23
1	4821	970	24
1	4842	970	24
1	4866	975	24
1	4877	980	25
1	4898	980	24
1	4917	985	23
1	4931	990	24
1	4945	990	23
1	4963	995	22
1	4982	1000	23
1	4995	1000	22
1	5017	1005	21
1	5035	1010	22
1	5048	1010	21
1	5069	1015	20
1	5089	1020	21
1	5101	1020	20
1	5119	1025	20
1	5132	1030	21
1	5147	1030	21
1	5165	1035	21
1	5177	1040	22
1	5198	1040	22
1	5225	1045	22
1	5236	1050	23
1	5261	1050	23
1	5282	1055	22
1	5292	1060	23
1	5311	1060	22
1	5332	1065	21
1	5345	1070	22
1	5362	1070	21
1	5378	1075	20
1	5391	1080	21
1	5404	1080	20
1	5423	1085	20
1	5434	1090	21
1	5447	1090	21
1	5467	1095	21
1	5478	1100	22
1	5499	1100	22
1	5521	1105	21
1	5533	1110	22
1	5551	1110	21
1	5570	1115	20
1	5584	1120	21
1	5601	1120	20
1	5622	1125	19
1	5636	1130	20
1	5650	1130	19
1	5667	1135	19
1	5681	1140	20
1	5698	1140	20
1	5718	1145	20
1	5730	1150	21
1	5749	1150	20
1	5772	1155	20
1	5784	1160	21
1	5805	1160	21
1	5826	1165	21
1	5834	1170	22
1	5853	1170	22
1	5873	1175	21
1	5887	1180	22
1	5906	1180	22
1	5932	1185	22
1	5943	1190	23
1	5968	1190	23
1	5992	1195	23
1	5998	1200	24
1	6017	1200	24
1	6037	1205	23
1	6050	1210	24
1	6067	1210	23
1	6084	1215	22
1	6097	1220	23
1	6110	1220	22
1	6130	1225	22
1	6148	1230	23
1	6171	1230	23
1	6195	1235	23
1	6205	1240	24
1	6225	1240	24
1	6247	1245	24
1	6258	1250	25
1	6278	1250	25
1	6296	1255	25
1	6305	1260	26
1	6322	1260	26
1	6338	1265	26
1	6348	1270	27
1	6363	1270	27
1	6377	1275	27
1	6389	1280	28
1	6404	1280	27
1	6427	1285	26
1	6451	1290	27
1	6465	1290	26
1	6486	1295	26
1	6499	1300	27
1	6514	1300	27
1	6538	1305	27
1	6548	1310	28
1	6569	1310	28
1	6594	1315	28
1	6604	1320	29
1	6622	1320	28
1	6637	1325	27
1	6652	1330	28
1	6667	1330	28
1	6689	1335	28
1	6700	1340	29
1	6721	1340	29
1	6743	1345	28
1	6756	1350	29
1	6773	1350	28
1	6792	1355	27
1	6808	1360	28
1	6823	1360	27
1	6845	1365	26
1	6859	1370	27
1	6874	1370	26
1	6895	1375	25
1	6914	1380	26
1	6929	1380	26
1	6954	1385	26
1	6962	1390	27
1	6979	1390	27
1	7002	1395	27
1	7012	1400	28
1	7033	1400	28
1	7053	1405	28
1	7061	1410	29
1	7075	1410	28
1	7090	1415	27
1	7104	1420	28
1	7117	1420	27
1	7135	1425	26
1	7152	1430	27
1	7165	1430	26
1	7189	1435	25
1	7207	1440	26
1	7220	1440	25
1	7242	1445	25
1	7254	1450	26
1	7269	1450	26
1	7284	1455	26
1	7297	1460	27
1	7311	1460	26
1	7328	1465	25
1	7345	1470	26
1	7358	1470	26
1	7385	1475	26
1	7392	1480	27
1	7409	1480	27
1	7426	1485	27
1	7438	1490	28
1	7455	1490	27
1	7477	1495	27
1	7493	1500	28
1	7514	1500	28
1	7532	1505	28
1	7540	1510	29
1	7557	1510	29
1	7575	1515	29
1	7585	1520	30
1	7604	1520	30
1	7623	1525	29
1	7636	1530	30
1	7649	1530	29
1	7665	1535	28
1	7686	1540	29
1	7697	1540	28
1	7718	1545	27
1	7739	1550	28
1	7750	1550	27
1	7775	1555	26
1	7798	1560	27
1	7809	1560	26
1	7834	1565	25
1	7860	1570	26
1	7871	1570	26
1	7903	1575	26
1	7911	1580	27
1	7930	1580	27
1	7949	1585	27
1	7959	1590	28
1	7976	1590	28
1	7995	1595	28
1	8006	1600	29
1	8025	1600	29
1	8043	1605	29
1	8054	1610	30
1	8073	1610	30
1	8091	1615	30
1	8103	1620	31
1	8124	1620	31
1	8144	1625	31
1	8155	1630	32
1	8176	1630	31
1	8199	1635	31
1	8209	1640	32
1	8226	1640	32
1	8242	1645	32
1	8253	1650	33
1	8270	1650	33
1	8283	1655	33
1	8296	1660	34
1	8311	1660	33
1	8333	1665	33
1	8352	1670	34
1	8377	1670	34
1	8405	1675	34
1	8416	1680	35
1	8439	1680	35
1	8454	1685	35
1	8464	1690	36
1	8483	1690	36
1	8507	1695	36
1	8514	1700	37
1	8531	1700	37
1	8544	1705	37
1	8556	1710	38
1	8571	1710	37
1	8590	1715	36
1	8605	1720	37
1	8619	1720	36
1	8637	1725	35
1	8650	1730	36
1	8661	1730	35
1	8678	1735	34
1	8698	1740	35
1	8709	1740	34
1	8730	1745	33
1	8748	1750	34
1	8759	1750	33
1	8778	1755	32
1	8794	1760	33
1	8805	1760	32
1	8822	1765	31
1	8839	1770	32
1	8850	1770	31
1	8870	1775	30
1	8891	1780	31
1	8902	1780	30
1	8927	1785	29
1	8945	1790	30
1	8956	1790	30
1	8976	1795	30
1	8984	1800	31
1	8997	1800	31
1	9014	1805	31
1	9023	1810	32
1	9036	1810	31
1	9054	1815	30
1	9074	1820	31
1	9087	1820	30
1	9107	1825	29
1	9123	1830	30
1	9134	1830	29
1	9154	1835	28
1	9171	1840	29
1	9182	1840	28
1	9202	1845	27
1	9224	1850	28
1	9235	1850	28
1	9253	1855	28
1	9265	1860	29
1	9284	1860	29
1	9304	1865	28
1	9315	1870	29
1	9332	1870	28
1	9351	1875	28
1	9363	1880	29
1	9380	1880	29
1	9396	1885	29
1	9406	1890	30
1	9423	1890	30
1	9447	1895	30
1	9456	1900	31
1	9475	1900	31
1	9491	1905	31
1	9502	1910	32
1	9519	1910	32
1	9540	1915	32
1	9550	1920	33
1	9568	1920	33
1	9586	1925	33
1	9597	1930	34
1	9616	1930	33
1	9638	1935	32
1	9651	1940	33
1	9668	1940	32
1	9689	1945	32
1	9701	1950	33
1	9718	1950	33
1	9738	1955	33
1	9749	1960	34
1	9768	1960	34
1	9787	1965	34
1	9796	1970	35
1	9813	1970	35
1	9827	1975	35
1	9839	1980	36
1	9856	1980	36
1	9874	1985	36
1	9884	1990	37
1	9901	1990	37
1	9917	1995	37
1	9929	2000	38
1	9948	2000	38
1	9966	2005	38
1	9977	2010	39
1	9998	2010	39
1	10018	2015	39
1	10024	2020	40
1	10039	2020	40
1	10056	2025	39
1	10071	2030	40
1	10084	2030	39
1	10105	2035	38
1	10125	2040	39
1	10138	2040	39
1	10165	2045	39
1	10175	2050	40
1	10194	2050	40
1	10212	2055	40
1	10224	2060	41
1	10243	2060	40
1	10265	2065	40
1	10275	2070	41
1	10292	2070	41
1	10313	2075	41
1	10323	2080	42
1	10340	2080	41
1	10362	2085	40
1	10380	2090	41
1	10396	2090	40
1	10416	2095	39
1	10433	2100	40
1	10447	2100	40
1	10472	2105	40
1	10483	2110	41
1	10506	2110	41
1	10530	2115	40
1	10543	2120	41
1	10562	2120	40
1	10578	2125	39
1	10594	2130	40
1	10608	2130	40
1	10634	2135	40
1	10645	2140	41
1	10668	2140	41
1	10694	2145	41
1	10705	2150	42
1	10730	2150	42
1	10750	2155	42
1	10757	2160	43
1	10774	2160	42
1	10794	2165	41
1	10811	2170	42
1	10826	2170	41
1	10841	2175	40
1	10856	2180	41
1	10869	2180	40
1	10890	2185	39
1	10912	2190	40
1	10925	2190	39
1	10949	2195	38
1	10972	2200	39
1	10985	2200	39
1	11010	2205	39
1	11021	2210	40
1	11040	2210	40
1	11059	2215	40
1	11070	2220	41
1	11087	2220	40
1	11110	2225	39
1	11126	2230	40
1	11141	2230	39
1	11165	2235	38
1	11182	2240	39
1	11196	2240	39
1	11215	2245	39
1	11226	2250	40
1	11245	2250	40
1	11269	2255	40
1	11277	2260	41
1	11294	2260	40
1	11316	2265	40
1	11329	2270	41
1	11347	2270	41
1	11360	2275	41
1	11369	2280	42
1	11384	2280	42
1	11402	2285	42
1	11414	2290	43
1	11435	2290	43
1	11458	2295	43
1	11468	2300	44
1	11489	2300	44
1	11513	2305	44
1	11523	2310	45
1	11546	2310	45
1	11567	2315	45
1	11577	2320	46
1	11596	2320	46
1	11610	2325	46
1	11621	2330	47
1	11640	2330	47
1	11657	2335	47
1	11665	2340	48
1	11678	2340	48
1	11690	2345	48
1	11702	2350	49
1	11717	2350	49
1	11734	2355	49
1	11745	2360	50
1	11764	2360	50
1	11783	2365	50
1	11794	2370	51
1	11815	2370	51
1	11839	2375	51
1	11849	2380	52
1	11872	2380	52
1	11899	2385	52
1	11908	2390	53
1	11931	2390	53
1	11950	2395	53
1	11961	2400	54
1	11982	2400	54
1	12002	2405	54
1	12012	2410	55
1	12031	2410	55
1	12047	2415	55
1	12056	2420	56
1	12073	2420	56
1	12094	2425	55
1	12113	2430	56
1	12129	2430	55
1	12150	2435	55
1	12164	2440	56
1	12183	2440	56
1	12199	2445	56
1	12207	2450	57
1	12222	2450	57
1	12237	2455	57
1	12250	2460	58
1	12271	2460	58
1	12294	2465	57
1	12308	2470	58
1	12327	2470	57
1	12353	2475	56
1	12371	2480	57
1	12389	2480	56
1	12411	2485	55
1	12428	2490	56
1	12444	2490	55
1	12465	2495	54
1	12483	2500	55
1	12497	2500	55
1	12524	2505	55
1	12535	2510	56
1	12558	2510	56
1	12584	2515	56
1	12594	2520	57
1	12617	2520	57
1	12635	2525	56
1	12646	2530	57
1	12663	2530	56
1	12684	2535	56
1	12693	2540	57
1	12708	2540	57
1	12726	2545	57
1	12737	2550	58
1	12756	2550	58
1	12778	2555	58
1	12792	2560	59
1	12813	2560	59
1	12838	2565	59
1	12844	2570	60
1	12859	2570	60
1	12870	2575	60
1	12882	2580	61
1	12899	2580	61
1	12917	2585	61
1	12926	2590	62
1	12941	2590	62
1	12958	2595	62
1	12969	2600	63
1	12988	2600	63
1	13007	2605	63
1	13016	2610	64
1	13030	2610	64
1	13046	2615	64
1	13059	2620	65
1	13078	2620	65
1	13091	2625	65
1	13100	2630	66
1	13113	2630	66
1	13128	2635	66
1	13139	2640	67
1	13154	2640	67
1	13171	2645	67
1	13182	2650	68
1	13201	2650	68
1	13226	2655	68
1	13238	2660	69
1	13259	2660	69
1	13279	2665	69
1	13289	2670	70
1	13310	2670	70
1	13334	2675	70
1	13345	2680	71
1	13368	2680	71
1	13390	2685	71
1	13400	2690	72
1	13421	2690	72
1	13438	2695	72
1	13449	2700	73
1	13470	2700	73
1	13489	2705	73
1	13499	2710	74
1	13520	2710	74
1	13539	2715	74
1	13548	2720	75
1	13565	2720	74
1	13583	2725	74
1	13596	2730	75
1	13615	2730	75
1	13629	2735	75
1	13640	2740	76
1	13659	2740	76
1	13678	2745	76
1	13689	2750	77
1	13706	2750	76
1	13722	2755	75
1	13737	2760	76
1	13752	2760	75
1	13770	2765	74
1	13785	2770	75
1	13800	2770	74
1	13822	2775	73
1	13838	2780	74
1	13851	2780	73
1	13872	2785	73
1	13887	2790	74
1	13906	2790	74
1	13928	2795	74
1	13940	2800	75
1	13965	2800	75
1	13988	2805	74
1	13996	2810	75
1	14013	2810	74
1	14032	2815	73
1	14046	2820	74
1	14061	2820	73
1	14078	2825	72
1	14097	2830	73
1	14110	2830	73
1	14135	2835	73
1	14143	2840	74
1	14160	2840	74
1	14177	2845	74
1	14190	2850	75
1	14213	2850	75
1	14236	2855	74
1	14248	2860	75
1	14267	2860	74
1	14289	2865	73
1	14301	2870	74
1	14316	2870	73
1	14335	2875	72
1	14349	2880	73
1	14362	2880	72
1	14382	2885	71
1	14402	2890	72
1	14415	2890	71
1	14440	2895	70
1	14459	2900	71
1	14472	2900	70
1	14495	2905	69
1	14514	2910	70
1	14525	2910	69
1	14546	2915	68
1	14568	2920	69
1	14579	2920	68
1	14602	2925	67
1	14619	2930	68
1	14630	2930	67
1	14650	2935	66
1	14672	2940	67
1	14683	2940	66
1	14704	2945	65
1	14724	2950	66
1	14735	2950	65
1	14757	2955	64
1	14775	2960	65
1	14786	2960	64
1	14805	2965	63
1	14828	2970	64
1	14839	2970	63
1	14869	2975	62
1	14891	2980	63
1	14902	2980	62
1	14925	2985	61
1	14943	2990	62
1	14954	2990	62
1	14976	2995	62
1	14987	3000	63
1	15004	3000	63
1	15022	3005	62
1	15042	3010	63
1	15057	3010	62
1	15083	3015	61
1	15106	3020	62
1	15121	3020	62
1	15146	3025	62
1	15155	3030	63
1	15174	3030	63
1	15191	3035	63
1	15199	3040	64
1	15212	3040	64
1	15224	3045	63
1	15242	3050	64
1	15253	3050	64
1	15279	3055	64
1	15291	3060	65
1	15310	3060	65
1	15327	3065	65
1	15338	3070	66
1	15357	3070	65
1	15378	3075	64
1	15391	3080	65
1	15410	3080	64
1	15433	3085	64
1	15446	3090	65
1	15467	3090	65
1	15489	3095	65
1	15499	3100	66
1	15518	3100	65
1	15541	3105	65
1	15554	3110	66
1	15573	3110	66
1	15591	3115	66
1	15601	3120	67
1	15618	3120	67
1	15634	3125	66
1	15648	3130	67
1	15663	3130	66
1	15685	3135	65
1	15704	3140	66
1	15719	3140	65
1	15744	3145	64
1	15765	3150	65
1	15780	3150	64
1	15808	3155	63
1	15828	3160	64
1	15842	3160	63
1	15862	3165	62
1	15879	3170	63
1	15890	3170	62
1	15909	3175	61
1	15929	3180	62
1	15940	3180	61
1	15961	3185	61
1	15975	3190	62
1	15990	3190	62
1	16009	3195	62
1	16018	3200	63
1	16035	3200	63
1	16053	3205	62
1	16067	3210	63
1	16084	3210	62
1	16107	3215	61
1	16121	3220	62
1	16134	3220	61
1	16154	3225	60
1	16173	3230	61
1	16186	3230	60
1	16207	3235	59
1	16228	3240	60
1	16241	3240	59
1	16262	3245	58
1	16280	3250	59
1	16293	3250	58
1	16316	3255	57
1	16333	3260	58
1	16344	3260	57
1	16364	3265	56
1	16386	3270	57
1	16397	3270	56
1	16422	3275	55
1	16448	3280	56
1	16459	3280	55
1	16484	3285	54
1	16502	3290	55
1	16513	3290	54
1	16532	3295	53
1	16551	3300	54
1	16562	3300	53
1	16584	3305	52
1	16601	3310	53
1	16612	3310	52
1	16633	3315	51
1	16650	3320	52
1	16661	3320	51
1	16681	3325	50
1	16701	3330	51
1	16712	3330	50
1	16735	3335	50
1	16758	3340	51
1	16783	3340	51
1	16802	3345	51
1	16810	3350	52
1	16829	3350	52
1	16848	3355	52
1	16859	3360	53
1	16878	3360	53
1	16896	3365	52
1	16914	3370	53
1	16931	3370	52
1	16958	3375	52
1	16974	3380	53
1	16995	3380	53
1	17010	3385	53
1	17019	3390	54
1	17036	3390	54
1	17056	3395	54
1	17067	3400	55
1	17086	3400	55
1	17103	3405	55
1	17117	3410	56
1	17136	3410	56
1	17157	3415	56
1	17167	3420	57
1	17188	3420	57
1	17211	3425	57
1	17218	3430	58
1	17237	3430	58
1	17257	3435	57
1	17269	3440	58
1	17287	3440	58
1	17306	3445	58
1	17317	3450	59
1	17336	3450	59
1	17357	3455	59
1	17368	3460	60
1	17389	3460	60
1	17407	3465	59
1	17421	3470	60
1	17435	3470	60
1	17458	3475	60
1	17469	3480	61
1	17488	3480	61
1	17503	3485	61
1	17517	3490	62
1	17534	3490	62
1	17562	3495	62
1	17572	3500	63
1	17595	3500	63
1	17622	3505	63
1	17630	3510	64
1	17653	3510	64
1	17675	3515	63
1	17685	3520	64
1	17704	3520	63
1	17726	3525	62
1	17741	3530	63
1	17760	3530	62
1	17783	3535	61
1	17797	3540	62
1	17810	3540	61
1	17832	3545	60
1	17852	3550	61
1	17865	3550	60
1	17889	3555	59
1	17910	3560	60
1	17921	3560	59
1	17942	3565	58
1	17960	3570	59
1	17971	3570	58
1	17991	3575	58
1	18009	3580	59
1	18030	3580	59
1	18054	3585	59
1	18065	3590	60
1	18090	3590	60
1	18119	3595	60
1	18127	3600	61
1	18148	3600	61
2	3	5	0
2	13	10	1
2	24	10	1
2	45	15	0
2	60	20	1
2	71	20	1
2	86	25	0
2	104	30	1
2	119	30	1
2	140	35	0
2	154	40	1
2	168	40	1
2	188	45	0
2	203	50	1
2	216	50	1
2	234	55	0
2	252	60	1
2	267	60	1
2	289	65	0
2	304	70	1
2	320	70	1
2	339	75	1
2	353	80	2
2	369	80	2
2	391	85	2
2	401	90	3
2	419	90	3
2	447	95	3
2	456	100	4
2	477	100	4
2	501	105	4
2	509	110	5
2	524	110	5
2	550	115	5
2	559	120	6
2	578	120	6
2	606	125	6
2	614	130	7
2	629	130	7
2	656	135	7
2	664	140	8
2	681	140	8
2	703	145	8
2	710	150	9
2	725	150	9
2	748	155	9
2	758	160	10
2	775	160	10
2	793	165	9
2	809	170	10
2	823	170	10
2	850	175	10
2	857	180	11
2	872	180	11
2	885	185	11
2	895	190	12
2	908	190	12
2	925	195	11
2	940	200	12
2	950	200	11
2	969	205	10
2	986	210	11
2	996	210	10
2	1014	215	9
2	1033	220	10
2	1043	220	9
2	1066	225	8
2	1087	230	9
2	1097	230	8
2	1115	235	7
2	1134	240	8
2	1144	240	8
2	1166	245	8
2	1177	250	9
2	1194	250	9
2	1217	255	9
2	1227	260	10
2	1243	260	9
2	1265	265	8
2	1283	270	9
2	1299	270	8
2	1325	275	7
2	1342	280	8
2	1355	280	8
2	1381	285	8
2	1391	290	9
2	1410	290	9
2	1435	295	9
2	1444	300	10
2	1463	300	10
2	1481	305	10
2	1491	310	11
2	1506	310	11
2	1527	315	11
2	1538	320	12
2	1556	320	12
2	1577	325	12
2	1588	330	13
2	1608	330	13
2	1631	335	13
2	1638	340	14
2	1654	340	14
2	1674	345	14
2	1685	350	15
2	1704	350	15
2	1728	355	15
2	1734	360	16
2	1748	360	15
2	1766	365	14
2	1783	370	15
2	1796	370	14
2	1815	375	13
2	1835	380	14
2	1847	380	13
2	1872	385	12
2	1897	390	13
2	1907	390	12
2	1930	395	11
2	1953	400	12
2	1963	400	11
2	1987	405	11
2	2009	410	12
2	2028	410	12
2	2044	415	12
2	2056	420	13
2	2076	420	13
2	2100	425	13
2	2112	430	14
2	2132	430	14
2	2147	435	13
2	2163	440	14
2	2178	440	13
2	2194	445	12
2	2208	450	13
2	2222	450	12
2	2243	455	11
2	2264	460	12
2	2275	460	12
2	2309	465	12
2	2317	470	13
2	2336	470	13
2	2358	475	13
2	2367	480	14
2	2386	480	14
2	2412	485	14
2	2421	490	15
2	2436	490	15
2	2456	495	15
2	2467	500	16
2	2485	500	16
2	2507	505	16
2	2519	510	17
2	2541	510	17
2	2566	515	17
2	2574	520	18
2	2592	520	18
2	2608	525	18
2	2620	530	19
2	2641	530	19
2	2662	535	18
2	2677	540	19
2	2695	540	18
2	2716	545	17
2	2735	550	18
2	2750	550	17
2	2772	555	17
2	2787	560	18
2	2803	560	18
2	2816	565	18
2	2831	570	19
2	2849	570	19
2	2859	575	19
2	2868	580	20
2	2881	580	20
2	2899	585	19
2	2915	590	20
2	2927	590	19
2	2948	595	18
2	2969	600	19
2	2981	600	18
2	3006	605	17
2	3027	610	18
2	3039	610	18
2	3062	615	18
2	3073	620	19
2	3092	620	19
2	3111	625	19
2	3124	630	20
2	3143	630	20
2	3161	635	20
2	3172	640	21
2	3191	640	21
2	3206	645	21
2	3217	650	22
2	3236	650	22
2	3259	655	22
2	3268	660	23
2	3289	660	23
2	3313	665	22
2	3327	670	23
2	3348	670	23
2	3373	675	23
2	3382	680	24
2	3402	680	24
2	3427	685	24
2	3437	690	25
2	3456	690	25
2	3467	695	25
2	3479	700	26
2	3493	700	25
2	3508	705	24
2	3525	710	25
2	3537	710	24
2	3557	715	24
2	3575	720	25
2	3597	720	25
2	3620	725	25
2	3633	730	26
2	3652	730	26
2	3680	735	26
2	3687	740	27
2	3706	740	27
2	3724	745	26
2	3737	750	27
2	3751	750	26
2	3773	755	25
2	3791	760	26
2	3805	760	25
2	3825	765	24
2	3841	770	25
2	3855	770	24
2	3877	775	23
2	3894	780	24
2	3905	780	23
2	3921	785	22
2	3940	790	23
2	3950	790	23
2	3976	795	23
2	3989	800	24
2	4009	800	24
2	4028	805	24
2	4035	810	25
2	4050	810	25
2	4067	815	24
2	4084	820	25
2	4098	820	24
2	4120	825	23
2	4135	830	24
2	4149	830	23
2	4170	835	22
2	4188	840	23
2	4202	840	22
2	4224	845	21
2	4243	850	22
2	4255	850	21
2	4279	855	20
2	4299	860	21
2	4311	860	21
2	4332	865	21
2	4340	870	22
2	4353	870	22
2	4372	875	22
2	4383	880	23
2	4402	880	23
2	4424	885	22
2	4441	890	23
2	4457	890	22
2	4478	895	22
2	4493	900	23
2	4512	900	23
2	4531	905	23
2	4543	910	24
2	4559	910	23
2	4576	915	23
2	4590	920	24
2	4610	920	24
2	4631	925	24
2	4644	930	25
2	4662	930	25
2	4670	935	24
2	4685	940	25
2	4696	940	25
2	4719	945	25
2	4727	950	26
2	4742	950	26
2	4762	955	26
2	4774	960	27
2	4792	960	27
2	4807	965	26
2	4822	970	27
2	4834	970	26
2	4856	975	25
2	4878	980	26
2	4889	980	25
2	4911	985	24
2	4932	990	25
2	4942	990	25
2	4971	995	25
2	4983	1000	26
2	5003	1000	26
2	5027	1005	26
2	5036	1010	27
2	5056	1010	27
2	5077	1015	27
2	5090	1020	28
2	5107	1020	28
2	5125	1025	28
2	5133	1030	29
2	5148	1030	29
2	5166	1035	29
2	5178	1040	30
2	5199	1040	30
2	5226	1045	30
2	5237	1050	31
2	5262	1050	31
2	5284	1055	31
2	5293	1060	32
2	5313	1060	32
2	5334	1065	32
2	5346	1070	33
2	5366	1070	33
2	5381	1075	33
2	5392	1080	34
2	5410	1080	34
2	5428	1085	34
2	5435	1090	35
2	5448	1090	35
2	5468	1095	35
2	5479	1100	36
2	5500	1100	36
2	5524	1105	36
2	5534	1110	37
2	5554	1110	37
2	5572	1115	36
2	5585	1120	37
2	5603	1120	36
2	5624	1125	36
2	5637	1130	37
2	5655	1130	37
2	5673	1135	37
2	5682	1140	38
2	5696	1140	37
2	5714	1145	36
2	5731	1150	37
2	5745	1150	36
2	5769	1155	35
2	5785	1160	36
2	5799	1160	35
2	5821	1165	35
2	5835	1170	36
2	5854	1170	36
2	5875	1175	36
2	5888	1180	37
2	5907	1180	37
2	5933	1185	37
2	5944	1190	38
2	5969	1190	38
2	5991	1195	38
2	5999	1200	39
2	6018	1200	39
2	6039	1205	39
2	6051	1210	40
2	6071	1210	40
2	6089	1215	40
2	6098	1220	41
2	6114	1220	41
2	6132	1225	40
2	6149	1230	41
2	6161	1230	40
2	6185	1235	40
2	6206	1240	41
2	6228	1240	41
2	6248	1245	41
2	6259	1250	42
2	6276	1250	41
2	6292	1255	41
2	6306	1260	42
2	6323	1260	42
2	6339	1265	42
2	6349	1270	43
2	6364	1270	43
2	6378	1275	43
2	6390	1280	44
2	6408	1280	44
2	6431	1285	43
2	6452	1290	44
2	6468	1290	43
2	6487	1295	43
2	6500	1300	44
2	6515	1300	44
2	6539	1305	44
2	6549	1310	45
2	6570	1310	45
2	6595	1315	45
2	6605	1320	46
2	6625	1320	46
2	6639	1325	45
2	6653	1330	46
2	6668	1330	45
2	6685	1335	44
2	6701	1340	45
2	6715	1340	44
2	6737	1345	43
2	6757	1350	44
2	6769	1350	44
2	6798	1355	44
2	6809	1360	45
2	6829	1360	45
2	6851	1365	45
2	6860	1370	46
2	6878	1370	46
2	6903	1375	46
2	6915	1380	47
2	6936	1380	47
2	6955	1385	47
2	6963	1390	48
2	6980	1390	48
2	7003	1395	48
2	7013	1400	49
2	7034	1400	49
2	7052	1405	49
2	7062	1410	50
2	7078	1410	50
2	7094	1415	50
2	7105	1420	51
2	7121	1420	51
2	7141	1425	51
2	7153	1430	52
2	7173	1430	52
2	7200	1435	52
2	7208	1440	53
2	7228	1440	53
2	7248	1445	53
2	7255	1450	54
2	7270	1450	54
2	7285	1455	54
2	7298	1460	55
2	7316	1460	55
2	7334	1465	55
2	7346	1470	56
2	7364	1470	56
2	7386	1475	56
2	7393	1480	57
2	7410	1480	57
2	7427	1485	57
2	7439	1490	58
2	7459	1490	58
2	7480	1495	57
2	7494	1500	58
2	7508	1500	57
2	7525	1505	56
2	7541	1510	57
2	7551	1510	56
2	7569	1515	56
2	7586	1520	57
2	7605	1520	57
2	7627	1525	57
2	7637	1530	58
2	7655	1530	58
2	7673	1535	58
2	7687	1540	59
2	7704	1540	59
2	7728	1545	59
2	7740	1550	60
2	7762	1550	60
2	7789	1555	60
2	7799	1560	61
2	7823	1560	61
2	7848	1565	61
2	7861	1570	62
2	7885	1570	62
2	7902	1575	62
2	7912	1580	63
2	7931	1580	63
2	7950	1585	63
2	7960	1590	64
2	7977	1590	64
2	7991	1595	63
2	8007	1600	64
2	8021	1600	64
2	8044	1605	64
2	8055	1610	65
2	8074	1610	65
2	8092	1615	65
2	8104	1620	66
2	8125	1620	66
2	8142	1625	65
2	8156	1630	66
2	8174	1630	65
2	8197	1635	64
2	8210	1640	65
2	8224	1640	65
2	8243	1645	65
2	8254	1650	66
2	8271	1650	66
2	8284	1655	66
2	8297	1660	67
2	8313	1660	66
2	8334	1665	65
2	8353	1670	66
2	8365	1670	65
2	8391	1675	64
2	8417	1680	65
2	8429	1680	64
2	8448	1685	63
2	8465	1690	64
2	8477	1690	63
2	8499	1695	63
2	8515	1700	64
2	8532	1700	64
2	8545	1705	64
2	8557	1710	65
2	8575	1710	65
2	8594	1715	65
2	8606	1720	66
2	8624	1720	66
2	8640	1725	66
2	8651	1730	67
2	8667	1730	67
2	8684	1735	67
2	8699	1740	68
2	8721	1740	68
2	8738	1745	68
2	8749	1750	69
2	8767	1750	69
2	8784	1755	69
2	8795	1760	70
2	8811	1760	70
2	8828	1765	70
2	8840	1770	71
2	8858	1770	71
2	8880	1775	71
2	8892	1780	72
2	8914	1780	72
2	8939	1785	72
2	8946	1790	73
2	8962	1790	73
2	8977	1795	73
2	8985	1800	74
2	8998	1800	74
2	9015	1805	74
2	9024	1810	75
2	9038	1810	75
2	9062	1815	75
2	9075	1820	76
2	9097	1820	76
2	9114	1825	76
2	9124	1830	77
2	9142	1830	77
2	9162	1835	77
2	9172	1840	78
2	9188	1840	77
2	9208	1845	76
2	9225	1850	77
2	9239	1850	77
2	9254	1855	77
2	9266	1860	78
2	9285	1860	78
2	9307	1865	78
2	9316	1870	79
2	9334	1870	79
2	9354	1875	79
2	9364	1880	80
2	9378	1880	79
2	9392	1885	78
2	9407	1890	79
2	9419	1890	78
2	9438	1895	77
2	9457	1900	78
2	9467	1900	78
2	9494	1905	78
2	9503	1910	79
2	9520	1910	79
2	9536	1915	78
2	9551	1920	79
2	9563	1920	79
2	9587	1925	79
2	9598	1930	80
2	9618	1930	80
2	9643	1935	80
2	9652	1940	81
2	9672	1940	81
2	9692	1945	80
2	9702	1950	81
2	9716	1950	80
2	9734	1955	79
2	9750	1960	80
2	9762	1960	79
2	9779	1965	79
2	9797	1970	80
2	9814	1970	80
2	9830	1975	80
2	9840	1980	81
2	9857	1980	81
2	9875	1985	81
2	9885	1990	82
2	9898	1990	82
2	9918	1995	82
2	9930	2000	83
2	9949	2000	83
2	9967	2005	83
2	9978	2010	84
2	9999	2010	84
2	10019	2015	84
2	10025	2020	85
2	10040	2020	85
2	10058	2025	84
2	10072	2030	85
2	10086	2030	84
2	10107	2035	83
2	10126	2040	84
2	10139	2040	83
2	10157	2045	82
2	10176	2050	83
2	10188	2050	82
2	10206	2055	81
2	10225	2060	82
2	10237	2060	81
2	10260	2065	80
2	10276	2070	81
2	10286	2070	80
2	10305	2075	80
2	10324	2080	81
2	10344	2080	81
2	10368	2085	81
2	10381	2090	82
2	10404	2090	82
2	10422	2095	82
2	10434	2100	83
2	10452	2100	82
2	10469	2105	81
2	10484	2110	82
2	10498	2110	81
2	10522	2115	80
2	10544	2120	81
2	10558	2120	81
2	10584	2125	81
2	10595	2130	82
2	10613	2130	82
2	10635	2135	82
2	10646	2140	83
2	10666	2140	82
2	10690	2145	81
2	10706	2150	82
2	10725	2150	82
2	10751	2155	82
2	10758	2160	83
2	10776	2160	83
2	10796	2165	82
2	10812	2170	83
2	10828	2170	83
2	10845	2175	83
2	10857	2180	84
2	10875	2180	84
2	10900	2185	84
2	10913	2190	85
2	10934	2190	84
2	10957	2195	83
2	10973	2200	84
2	10990	2200	84
2	11011	2205	84
2	11022	2210	85
2	11041	2210	85
2	11060	2215	85
2	11071	2220	86
2	11089	2220	85
2	11112	2225	84
2	11127	2230	85
2	11143	2230	84
2	11167	2235	84
2	11183	2240	85
2	11201	2240	85
2	11216	2245	85
2	11227	2250	86
2	11246	2250	86
2	11270	2255	86
2	11278	2260	87
2	11298	2260	87
2	11319	2265	87
2	11330	2270	88
2	11348	2270	88
2	11361	2275	88
2	11370	2280	89
2	11385	2280	89
2	11403	2285	89
2	11415	2290	90
2	11436	2290	90
2	11459	2295	90
2	11469	2300	91
2	11490	2300	91
2	11514	2305	91
2	11524	2310	92
2	11547	2310	92
2	11568	2315	92
2	11578	2320	93
2	11594	2320	93
2	11611	2325	93
2	11622	2330	94
2	11641	2330	94
2	11658	2335	94
2	11666	2340	95
2	11679	2340	95
2	11691	2345	95
2	11703	2350	96
2	11718	2350	96
2	11735	2355	96
2	11746	2360	97
2	11765	2360	97
2	11784	2365	97
2	11795	2370	98
2	11816	2370	98
2	11840	2375	98
2	11850	2380	99
2	11873	2380	99
2	11895	2385	98
2	11909	2390	99
2	11926	2390	99
2	11951	2395	99
2	11962	2400	100
2	11983	2400	100
2	12003	2405	100
2	12013	2410	101
2	12032	2410	101
2	12048	2415	101
2	12057	2420	102
2	12071	2420	101
2	12092	2425	100
2	12114	2430	101
2	12127	2430	100
2	12148	2435	99
2	12165	2440	100
2	12177	2440	99
2	12195	2445	99
2	12208	2450	100
2	12223	2450	100
2	12238	2455	100
2	12251	2460	101
2	12272	2460	101
2	12299	2465	101
2	12309	2470	102
2	12333	2470	102
2	12359	2475	101
2	12372	2480	102
2	12395	2480	102
2	12417	2485	102
2	12429	2490	103
2	12451	2490	103
2	12473	2495	103
2	12484	2500	104
2	12504	2500	104
2	12522	2505	103
2	12536	2510	104
2	12554	2510	103
2	12578	2515	102
2	12595	2520	103
2	12611	2520	102
2	12630	2525	102
2	12647	2530	103
2	12667	2530	103
2	12688	2535	103
2	12694	2540	104
2	12706	2540	103
2	12722	2545	102
2	12738	2550	103
2	12750	2550	102
2	12770	2555	101
2	12793	2560	102
2	12805	2560	101
2	12829	2565	101
2	12845	2570	102
2	12860	2570	102
2	12871	2575	102
2	12883	2580	103
2	12900	2580	103
2	12918	2585	103
2	12927	2590	104
2	12942	2590	104
2	12954	2595	103
2	12970	2600	104
2	12982	2600	103
2	13001	2605	102
2	13017	2610	103
2	13027	2610	103
2	13047	2615	103
2	13060	2620	104
2	13079	2620	104
2	13092	2625	104
2	13101	2630	105
2	13114	2630	105
2	13124	2635	104
2	13140	2640	105
2	13150	2640	104
2	13165	2645	103
2	13183	2650	104
2	13193	2650	103
2	13214	2655	102
2	13239	2660	103
2	13249	2660	102
2	13269	2665	101
2	13290	2670	102
2	13300	2670	101
2	13322	2675	100
2	13346	2680	101
2	13356	2680	100
2	13378	2685	99
2	13401	2690	100
2	13411	2690	99
2	13430	2695	98
2	13450	2700	99
2	13460	2700	98
2	13481	2705	97
2	13500	2710	98
2	13510	2710	97
2	13531	2715	96
2	13549	2720	97
2	13559	2720	96
2	13578	2725	96
2	13597	2730	97
2	13616	2730	97
2	13630	2735	97
2	13641	2740	98
2	13657	2740	97
2	13676	2745	96
2	13690	2750	97
2	13705	2750	97
2	13726	2755	97
2	13738	2760	98
2	13756	2760	98
2	13772	2765	97
2	13786	2770	98
2	13802	2770	97
2	13824	2775	96
2	13839	2780	97
2	13853	2780	96
2	13873	2785	95
2	13888	2790	96
2	13900	2790	95
2	13920	2795	94
2	13941	2800	95
2	13953	2800	94
2	13979	2805	94
2	13997	2810	95
2	14015	2810	95
2	14034	2815	95
2	14047	2820	96
2	14063	2820	95
2	14080	2825	94
2	14098	2830	95
2	14111	2830	94
2	14129	2835	93
2	14144	2840	94
2	14156	2840	93
2	14173	2845	92
2	14191	2850	93
2	14203	2850	92
2	14228	2855	92
2	14249	2860	93
2	14271	2860	93
2	14294	2865	93
2	14302	2870	94
2	14320	2870	94
2	14338	2875	93
2	14350	2880	94
2	14364	2880	93
2	14384	2885	92
2	14403	2890	93
2	14417	2890	92
2	14442	2895	92
2	14460	2900	93
2	14482	2900	93
2	14506	2905	93
2	14515	2910	94
2	14535	2910	94
2	14556	2915	94
2	14569	2920	95
2	14589	2920	95
2	14612	2925	95
2	14620	2930	96
2	14638	2930	96
2	14660	2935	96
2	14673	2940	97
2	14695	2940	97
2	14714	2945	97
2	14725	2950	98
2	14745	2950	98
2	14767	2955	98
2	14776	2960	99
2	14794	2960	99
2	14813	2965	99
2	14829	2970	100
2	14847	2970	99
2	14876	2975	98
2	14892	2980	99
2	14908	2980	98
2	14930	2985	97
2	14944	2990	98
2	14956	2990	97
2	14970	2995	96
2	14988	3000	97
2	14998	3000	96
2	15018	3005	95
2	15043	3010	96
2	15053	3010	95
2	15079	3015	94
2	15107	3020	95
2	15117	3020	94
2	15138	3025	94
2	15156	3030	95
2	15175	3030	95
2	15192	3035	95
2	15200	3040	96
2	15213	3040	96
2	15230	3045	96
2	15243	3050	97
2	15258	3050	96
2	15275	3055	95
2	15292	3060	96
2	15304	3060	96
2	15328	3065	96
2	15339	3070	97
2	15359	3070	97
2	15380	3075	97
2	15392	3080	98
2	15414	3080	98
2	15436	3085	98
2	15447	3090	99
2	15468	3090	99
2	15490	3095	99
2	15500	3100	100
2	15522	3100	100
2	15546	3105	100
2	15555	3110	101
2	15574	3110	101
2	15592	3115	101
2	15602	3120	102
2	15619	3120	102
2	15636	3125	102
2	15649	3130	103
2	15669	3130	103
2	15693	3135	103
2	15705	3140	104
2	15729	3140	104
2	15754	3145	104
2	15766	3150	105
2	15792	3150	105
2	15818	3155	104
2	15829	3160	105
2	15849	3160	104
2	15868	3165	104
2	15880	3170	105
2	15898	3170	105
2	15917	3175	105
2	15930	3180	106
2	15950	3180	106
2	15969	3185	106
2	15976	3190	107
2	15991	3190	107
2	16006	3195	107
2	16019	3200	108
2	16036	3200	108
2	16055	3205	108
2	16068	3210	109
2	16090	3210	109
2	16115	3215	109
2	16122	3220	110
2	16140	3220	110
2	16162	3225	110
2	16174	3230	111
2	16194	3230	111
2	16213	3235	110
2	16229	3240	111
2	16246	3240	110
2	16266	3245	109
2	16281	3250	110
2	16297	3250	109
2	16319	3255	109
2	16334	3260	110
2	16352	3260	110
2	16374	3265	110
2	16387	3270	111
2	16407	3270	110
2	16432	3275	109
2	16449	3280	110
2	16467	3280	109
2	16489	3285	109
2	16503	3290	110
2	16521	3290	110
2	16540	3295	110
2	16552	3300	111
2	16572	3300	111
2	16592	3305	111
2	16602	3310	112
2	16616	3310	111
2	16636	3315	111
2	16651	3320	112
2	16669	3320	112
2	16691	3325	112
2	16702	3330	113
2	16722	3330	113
2	16743	3335	112
2	16759	3340	113
2	16774	3340	113
2	16803	3345	113
2	16811	3350	114
2	16830	3350	114
2	16849	3355	114
2	16860	3360	115
2	16879	3360	115
2	16902	3365	115
2	16915	3370	116
2	16937	3370	115
2	16962	3375	114
2	16975	3380	115
2	16989	3380	114
2	17005	3385	114
2	17020	3390	115
2	17037	3390	115
2	17057	3395	115
2	17068	3400	116
2	17084	3400	115
2	17102	3405	115
2	17118	3410	116
2	17137	3410	116
2	17158	3415	116
2	17168	3420	117
2	17189	3420	117
2	17212	3425	117
2	17219	3430	118
2	17235	3430	117
2	17255	3435	116
2	17270	3440	117
2	17285	3440	116
2	17302	3445	115
2	17318	3450	116
2	17330	3450	115
2	17347	3455	114
2	17369	3460	115
2	17379	3460	114
2	17401	3465	114
2	17422	3470	115
2	17440	3470	115
2	17459	3475	115
2	17470	3480	116
2	17489	3480	116
2	17504	3485	116
2	17518	3490	117
2	17535	3490	116
2	17556	3495	115
2	17573	3500	116
2	17589	3500	115
2	17613	3505	114
2	17631	3510	115
2	17645	3510	114
2	17669	3515	114
2	17686	3520	115
2	17706	3520	115
2	17730	3525	115
2	17742	3530	116
2	17766	3530	116
2	17790	3535	116
2	17798	3540	117
2	17818	3540	117
2	17840	3545	116
2	17853	3550	117
2	17873	3550	116
2	17896	3555	115
2	17911	3560	116
2	17925	3560	115
2	17944	3565	115
2	17961	3570	116
2	17979	3570	116
2	17999	3575	116
2	18010	3580	117
2	18026	3580	116
2	18048	3585	115
2	18066	3590	116
2	18082	3590	115
2	18107	3595	114
2	18128	3600	115
2	18140	3600	115
3	4	5	0
3	14	10	1
3	25	10	1
3	47	15	0
3	61	20	1
3	72	20	1
3	88	25	0
3	105	30	1
3	120	30	1
3	142	35	0
3	155	40	1
3	169	40	1
3	190	45	0
3	204	50	1
3	217	50	1
3	236	55	0
3	253	60	1
3	268	60	1
3	291	65	1
3	305	70	2
3	321	70	2
3	344	75	2
3	354	80	3
3	366	80	3
3	392	85	3
3	402	90	4
3	420	90	4
3	448	95	4
3	457	100	5
3	478	100	5
3	505	105	5
3	510	110	6
3	525	110	6
3	544	115	5
3	560	120	6
3	573	120	5
3	595	125	4
3	615	130	5
3	626	130	4
3	646	135	3
3	665	140	4
3	676	140	3
3	695	145	2
3	711	150	3
3	720	150	2
3	738	155	1
3	759	160	2
3	768	160	2
3	799	165	2
3	810	170	3
3	828	170	3
3	846	175	3
3	858	180	4
3	873	180	4
3	886	185	4
3	896	190	5
3	909	190	5
3	932	195	5
3	941	200	6
3	957	200	6
3	978	205	6
3	987	210	7
3	1002	210	7
3	1022	215	7
3	1034	220	8
3	1051	220	8
3	1074	225	8
3	1088	230	9
3	1106	230	9
3	1123	235	9
3	1135	240	10
3	1151	240	10
3	1167	245	10
3	1178	250	11
3	1195	250	11
3	1218	255	11
3	1228	260	12
3	1248	260	12
3	1271	265	12
3	1284	270	13
3	1308	270	13
3	1335	275	13
3	1343	280	14
3	1361	280	14
3	1379	285	13
3	1392	290	14
3	1405	290	13
3	1426	295	12
3	1445	300	13
3	1456	300	13
3	1482	305	13
3	1492	310	14
3	1508	310	14
3	1528	315	14
3	1539	320	15
3	1554	320	14
3	1571	325	13
3	1589	330	14
3	1602	330	13
3	1624	335	13
3	1639	340	14
3	1655	340	14
3	1675	345	14
3	1686	350	15
3	1705	350	15
3	1724	355	15
3	1735	360	16
3	1751	360	16
3	1771	365	16
3	1784	370	17
3	1804	370	17
3	1824	375	17
3	1836	380	18
3	1858	380	18
3	1887	385	18
3	1898	390	19
3	1919	390	18
3	1940	395	17
3	1954	400	18
3	1973	400	17
3	1995	405	16
3	2010	410	17
3	2024	410	17
3	2045	415	17
3	2057	420	18
3	2077	420	18
3	2101	425	18
3	2113	430	19
3	2131	430	19
3	2152	435	19
3	2164	440	20
3	2183	440	20
3	2197	445	20
3	2209	450	21
3	2224	450	20
3	2245	455	19
3	2265	460	20
3	2276	460	19
3	2297	465	18
3	2318	470	19
3	2327	470	18
3	2347	475	17
3	2368	480	18
3	2377	480	17
3	2399	485	16
3	2422	490	17
3	2431	490	17
3	2457	495	17
3	2468	500	18
3	2486	500	18
3	2508	505	18
3	2520	510	19
3	2537	510	18
3	2560	515	17
3	2575	520	18
3	2586	520	17
3	2601	525	16
3	2621	530	17
3	2630	530	16
3	2652	535	15
3	2678	540	16
3	2687	540	15
3	2710	545	14
3	2736	550	15
3	2745	550	15
3	2778	555	15
3	2788	560	16
3	2804	560	16
3	2817	565	16
3	2832	570	17
3	2843	570	16
3	2856	575	16
3	2869	580	17
3	2882	580	17
3	2906	585	17
3	2916	590	18
3	2933	590	18
3	2958	595	18
3	2970	600	19
3	2991	600	19
3	3015	605	18
3	3028	610	19
3	3045	610	18
3	3060	615	17
3	3074	620	18
3	3085	620	17
3	3106	625	16
3	3125	630	17
3	3136	630	17
3	3162	635	17
3	3173	640	18
3	3192	640	18
3	3207	645	18
3	3218	650	19
3	3237	650	19
3	3254	655	18
3	3269	660	19
3	3282	660	18
3	3305	665	17
3	3328	670	18
3	3341	670	18
3	3374	675	18
3	3383	680	19
3	3403	680	19
3	3424	685	19
3	3438	690	20
3	3457	690	20
3	3468	695	20
3	3480	700	21
3	3495	700	21
3	3515	705	21
3	3526	710	22
3	3544	710	22
3	3564	715	22
3	3576	720	23
3	3598	720	23
3	3621	725	23
3	3634	730	24
3	3653	730	23
3	3673	735	22
3	3688	740	23
3	3701	740	22
3	3721	745	21
3	3738	750	22
3	3749	750	21
3	3771	755	20
3	3792	760	21
3	3803	760	20
3	3823	765	19
3	3842	770	20
3	3853	770	19
3	3876	775	19
3	3895	780	20
3	3912	780	20
3	3927	785	20
3	3941	790	21
3	3958	790	21
3	3977	795	21
3	3990	800	22
3	4006	800	21
3	4024	805	21
3	4036	810	22
3	4051	810	22
3	4074	815	22
3	4085	820	23
3	4104	820	23
3	4126	825	23
3	4136	830	24
3	4154	830	24
3	4174	835	23
3	4189	840	24
3	4206	840	23
3	4227	845	22
3	4244	850	23
3	4257	850	22
3	4281	855	22
3	4300	860	23
3	4317	860	23
3	4333	865	23
3	4341	870	24
3	4354	870	24
3	4373	875	24
3	4384	880	25
3	4403	880	25
3	4426	885	25
3	4442	890	26
3	4465	890	26
3	4484	895	26
3	4494	900	27
3	4513	900	27
3	4532	905	27
3	4544	910	28
3	4564	910	28
3	4579	915	28
3	4591	920	29
3	4611	920	29
3	4632	925	29
3	4645	930	30
3	4660	930	30
3	4673	935	30
3	4686	940	31
3	4702	940	31
3	4720	945	31
3	4728	950	32
3	4743	950	32
3	4763	955	32
3	4775	960	33
3	4793	960	33
3	4811	965	33
3	4823	970	34
3	4838	970	33
3	4860	975	32
3	4879	980	33
3	4892	980	32
3	4913	985	31
3	4933	990	32
3	4943	990	31
3	4961	995	30
3	4984	1000	31
3	4993	1000	30
3	5015	1005	29
3	5037	1010	30
3	5046	1010	29
3	5067	1015	28
3	5091	1020	29
3	5100	1020	29
3	5126	1025	29
3	5134	1030	30
3	5149	1030	30
3	5167	1035	30
3	5179	1040	31
3	5200	1040	31
3	5221	1045	30
3	5238	1050	31
3	5255	1050	30
3	5277	1055	29
3	5294	1060	30
3	5307	1060	29
3	5328	1065	28
3	5347	1070	29
3	5359	1070	28
3	5377	1075	28
3	5393	1080	29
3	5411	1080	29
3	5429	1085	29
3	5436	1090	30
3	5449	1090	30
3	5462	1095	29
3	5480	1100	30
3	5489	1100	29
3	5512	1105	28
3	5535	1110	29
3	5544	1110	28
3	5564	1115	27
3	5586	1120	28
3	5595	1120	27
3	5617	1125	26
3	5638	1130	27
3	5647	1130	27
3	5674	1135	27
3	5683	1140	28
3	5699	1140	28
3	5719	1145	28
3	5732	1150	29
3	5753	1150	29
3	5775	1155	29
3	5786	1160	30
3	5806	1160	30
3	5827	1165	30
3	5836	1170	31
3	5855	1170	31
3	5876	1175	31
3	5889	1180	32
3	5910	1180	32
3	5930	1185	31
3	5945	1190	32
3	5964	1190	31
3	5988	1195	30
3	6000	1200	31
3	6015	1200	30
3	6035	1205	29
3	6052	1210	30
3	6065	1210	29
3	6082	1215	28
3	6099	1220	29
3	6108	1220	28
3	6128	1225	27
3	6150	1230	28
3	6159	1230	27
3	6183	1235	26
3	6207	1240	27
3	6216	1240	26
3	6237	1245	25
3	6260	1250	26
3	6269	1250	26
3	6297	1255	26
3	6307	1260	27
3	6324	1260	27
3	6336	1265	26
3	6350	1270	27
3	6362	1270	27
3	6379	1275	27
3	6391	1280	28
3	6409	1280	28
3	6439	1285	28
3	6453	1290	29
3	6474	1290	28
3	6490	1295	27
3	6501	1300	28
3	6512	1300	27
3	6530	1305	26
3	6550	1310	27
3	6561	1310	26
3	6584	1315	25
3	6606	1320	26
3	6616	1320	25
3	6633	1325	24
3	6654	1330	25
3	6663	1330	24
3	6681	1335	23
3	6702	1340	24
3	6711	1340	23
3	6734	1345	23
3	6758	1350	24
3	6779	1350	24
3	6799	1355	24
3	6810	1360	25
3	6830	1360	25
3	6852	1365	25
3	6861	1370	26
3	6879	1370	26
3	6899	1375	25
3	6916	1380	26
3	6932	1380	25
3	6951	1385	25
3	6964	1390	26
3	6981	1390	26
3	7004	1395	26
3	7014	1400	27
3	7035	1400	27
3	7054	1405	27
3	7063	1410	28
3	7077	1410	28
3	7095	1415	28
3	7106	1420	29
3	7122	1420	29
3	7142	1425	29
3	7154	1430	30
3	7174	1430	30
3	7201	1435	30
3	7209	1440	31
3	7229	1440	31
3	7247	1445	31
3	7256	1450	32
3	7271	1450	32
3	7286	1455	32
3	7299	1460	33
3	7317	1460	33
3	7335	1465	33
3	7347	1470	34
3	7365	1470	34
3	7380	1475	33
3	7394	1480	34
3	7405	1480	33
3	7422	1485	32
3	7440	1490	33
3	7451	1490	32
3	7473	1495	31
3	7495	1500	32
3	7504	1500	31
3	7524	1505	31
3	7542	1510	32
3	7558	1510	32
3	7576	1515	32
3	7587	1520	33
3	7606	1520	33
3	7628	1525	33
3	7638	1530	34
3	7656	1530	34
3	7671	1535	33
3	7688	1540	34
3	7702	1540	33
3	7722	1545	32
3	7741	1550	33
3	7754	1550	32
3	7779	1555	32
3	7800	1560	33
3	7824	1560	33
3	7849	1565	33
3	7862	1570	34
3	7882	1570	34
3	7904	1575	34
3	7913	1580	35
3	7932	1580	35
3	7951	1585	35
3	7961	1590	36
3	7978	1590	36
3	7996	1595	36
3	8008	1600	37
3	8026	1600	37
3	8045	1605	37
3	8056	1610	38
3	8075	1610	38
3	8093	1615	38
3	8105	1620	39
3	8120	1620	38
3	8138	1625	37
3	8157	1630	38
3	8170	1630	37
3	8194	1635	37
3	8211	1640	38
3	8227	1640	38
3	8244	1645	38
3	8255	1650	39
3	8272	1650	39
3	8285	1655	39
3	8298	1660	40
3	8315	1660	39
3	8336	1665	38
3	8354	1670	39
3	8367	1670	38
3	8393	1675	37
3	8418	1680	38
3	8431	1680	37
3	8450	1685	36
3	8466	1690	37
3	8479	1690	36
3	8500	1695	36
3	8516	1700	37
3	8533	1700	37
3	8546	1705	37
3	8558	1710	38
3	8576	1710	38
3	8595	1715	38
3	8607	1720	39
3	8622	1720	38
3	8639	1725	38
3	8652	1730	39
3	8668	1730	39
3	8685	1735	39
3	8700	1740	40
3	8714	1740	39
3	8734	1745	38
3	8750	1750	39
3	8763	1750	39
3	8786	1755	39
3	8796	1760	40
3	8812	1760	40
3	8829	1765	40
3	8841	1770	41
3	8859	1770	41
3	8881	1775	41
3	8893	1780	42
3	8912	1780	41
3	8935	1785	41
3	8947	1790	42
3	8963	1790	42
3	8978	1795	42
3	8986	1800	43
3	8999	1800	43
3	9011	1805	42
3	9025	1810	43
3	9034	1810	42
3	9052	1815	41
3	9076	1820	42
3	9085	1820	41
3	9106	1825	41
3	9125	1830	42
3	9143	1830	42
3	9163	1835	42
3	9173	1840	43
3	9190	1840	43
3	9212	1845	43
3	9226	1850	44
3	9241	1850	44
3	9255	1855	44
3	9267	1860	45
3	9286	1860	45
3	9308	1865	45
3	9317	1870	46
3	9335	1870	46
3	9355	1875	46
3	9365	1880	47
3	9381	1880	47
3	9394	1885	46
3	9408	1890	47
3	9421	1890	46
3	9440	1895	46
3	9458	1900	47
3	9476	1900	47
3	9495	1905	47
3	9504	1910	48
3	9521	1910	48
3	9541	1915	48
3	9552	1920	49
3	9569	1920	49
3	9582	1925	48
3	9599	1930	49
3	9612	1930	48
3	9635	1935	48
3	9653	1940	49
3	9673	1940	49
3	9695	1945	49
3	9703	1950	50
3	9719	1950	50
3	9736	1955	49
3	9751	1960	50
3	9764	1960	49
3	9780	1965	48
3	9798	1970	49
3	9807	1970	49
3	9831	1975	49
3	9841	1980	50
3	9858	1980	50
3	9876	1985	50
3	9886	1990	51
3	9902	1990	51
3	9915	1995	50
3	9931	2000	51
3	9942	2000	50
3	9958	2005	49
3	9979	2010	50
3	9988	2010	49
3	10010	2015	48
3	10026	2020	49
3	10035	2020	48
3	10053	2025	47
3	10073	2030	48
3	10082	2030	47
3	10103	2035	46
3	10127	2040	47
3	10136	2040	46
3	10155	2045	45
3	10177	2050	46
3	10186	2050	45
3	10204	2055	44
3	10226	2060	45
3	10235	2060	44
3	10259	2065	44
3	10277	2070	45
3	10293	2070	45
3	10314	2075	45
3	10325	2080	46
3	10345	2080	46
3	10369	2085	46
3	10382	2090	47
3	10401	2090	46
3	10420	2095	45
3	10435	2100	46
3	10450	2100	45
3	10468	2105	45
3	10485	2110	46
3	10507	2110	46
3	10532	2115	46
3	10545	2120	47
3	10566	2120	47
3	10582	2125	46
3	10596	2130	47
3	10611	2130	46
3	10628	2135	45
3	10647	2140	46
3	10660	2140	45
3	10684	2145	44
3	10707	2150	45
3	10719	2150	44
3	10741	2155	43
3	10759	2160	44
3	10768	2160	43
3	10788	2165	42
3	10813	2170	43
3	10822	2170	43
3	10846	2175	43
3	10858	2180	44
3	10876	2180	44
3	10901	2185	44
3	10914	2190	45
3	10937	2190	45
3	10959	2195	44
3	10974	2200	45
3	10991	2200	44
3	11006	2205	43
3	11023	2210	44
3	11035	2210	43
3	11052	2215	42
3	11072	2220	43
3	11081	2220	42
3	11105	2225	41
3	11128	2230	42
3	11137	2230	41
3	11161	2235	40
3	11184	2240	41
3	11193	2240	41
3	11217	2245	41
3	11228	2250	42
3	11247	2250	42
3	11271	2255	42
3	11279	2260	43
3	11296	2260	42
3	11317	2265	41
3	11331	2270	42
3	11344	2270	42
3	11362	2275	42
3	11371	2280	43
3	11386	2280	43
3	11404	2285	43
3	11416	2290	44
3	11431	2290	43
3	11454	2295	42
3	11470	2300	43
3	11483	2300	42
3	11505	2305	41
3	11525	2310	42
3	11538	2310	41
3	11560	2315	41
3	11579	2320	42
3	11597	2320	42
3	11612	2325	42
3	11623	2330	43
3	11642	2330	43
3	11659	2335	43
3	11667	2340	44
3	11677	2340	44
3	11692	2345	44
3	11704	2350	45
3	11719	2350	45
3	11736	2355	45
3	11747	2360	46
3	11766	2360	46
3	11785	2365	46
3	11796	2370	47
3	11817	2370	47
3	11837	2375	46
3	11851	2380	47
3	11870	2380	46
3	11893	2385	45
3	11910	2390	46
3	11924	2390	45
3	11944	2395	44
3	11963	2400	45
3	11976	2400	45
3	12004	2405	45
3	12014	2410	46
3	12033	2410	46
3	12049	2415	46
3	12058	2420	47
3	12074	2420	47
3	12096	2425	46
3	12115	2430	47
3	12131	2430	46
3	12151	2435	45
3	12166	2440	46
3	12179	2440	45
3	12196	2445	45
3	12209	2450	46
3	12224	2450	46
3	12239	2455	46
3	12252	2460	47
3	12273	2460	47
3	12296	2465	46
3	12310	2470	47
3	12329	2470	46
3	12355	2475	45
3	12373	2480	46
3	12391	2480	45
3	12413	2485	44
3	12430	2490	45
3	12446	2490	44
3	12467	2495	43
3	12485	2500	44
3	12498	2500	43
3	12516	2505	42
3	12537	2510	43
3	12548	2510	42
3	12572	2515	41
3	12596	2520	42
3	12606	2520	41
3	12627	2525	40
3	12648	2530	41
3	12657	2530	40
3	12680	2535	40
3	12695	2540	41
3	12709	2540	41
3	12727	2545	41
3	12739	2550	42
3	12757	2550	42
3	12779	2555	42
3	12794	2560	43
3	12814	2560	42
3	12835	2565	41
3	12846	2570	42
3	12858	2570	42
3	12872	2575	42
3	12884	2580	43
3	12901	2580	43
3	12919	2585	43
3	12928	2590	44
3	12943	2590	44
3	12959	2595	44
3	12971	2600	45
3	12986	2600	44
3	13004	2605	44
3	13018	2610	45
3	13033	2610	45
3	13048	2615	45
3	13061	2620	46
3	13074	2620	45
3	13090	2625	45
3	13102	2630	46
3	13115	2630	46
3	13129	2635	46
3	13141	2640	47
3	13155	2640	47
3	13172	2645	47
3	13184	2650	48
3	13202	2650	48
3	13222	2655	47
3	13240	2660	48
3	13256	2660	47
3	13275	2665	46
3	13291	2670	47
3	13306	2670	46
3	13328	2675	45
3	13347	2680	46
3	13362	2680	45
3	13384	2685	44
3	13402	2690	45
3	13416	2690	45
3	13439	2695	45
3	13451	2700	46
3	13471	2700	46
3	13490	2705	46
3	13501	2710	47
3	13516	2710	46
3	13536	2715	46
3	13550	2720	47
3	13567	2720	47
3	13584	2725	47
3	13598	2730	48
3	13617	2730	48
3	13627	2735	47
3	13642	2740	48
3	13655	2740	47
3	13674	2745	46
3	13691	2750	47
3	13703	2750	46
3	13720	2755	45
3	13739	2760	46
3	13750	2760	45
3	13768	2765	44
3	13787	2770	45
3	13798	2770	44
3	13820	2775	43
3	13840	2780	44
3	13849	2780	43
3	13870	2785	42
3	13889	2790	43
3	13898	2790	42
3	13918	2795	41
3	13942	2800	42
3	13951	2800	41
3	13978	2805	41
3	13998	2810	42
3	14016	2810	42
3	14035	2815	42
3	14048	2820	43
3	14065	2820	42
3	14082	2825	41
3	14099	2830	42
3	14113	2830	41
3	14131	2835	41
3	14145	2840	42
3	14161	2840	42
3	14178	2845	42
3	14192	2850	43
3	14207	2850	42
3	14231	2855	41
3	14250	2860	42
3	14263	2860	41
3	14286	2865	41
3	14303	2870	42
3	14321	2870	42
3	14340	2875	42
3	14351	2880	43
3	14368	2880	43
3	14390	2885	43
3	14404	2890	44
3	14423	2890	43
3	14447	2895	42
3	14461	2900	43
3	14478	2900	42
3	14500	2905	41
3	14516	2910	42
3	14529	2910	41
3	14550	2915	40
3	14570	2920	41
3	14583	2920	40
3	14605	2925	40
3	14621	2930	41
3	14639	2930	41
3	14661	2935	41
3	14674	2940	42
3	14696	2940	42
3	14715	2945	42
3	14726	2950	43
3	14746	2950	43
3	14766	2955	43
3	14777	2960	44
3	14795	2960	44
3	14814	2965	44
3	14830	2970	45
3	14849	2970	44
3	14878	2975	44
3	14893	2980	45
3	14914	2980	45
3	14935	2985	45
3	14945	2990	46
3	14960	2990	46
3	14977	2995	46
3	14989	3000	47
3	15005	3000	47
3	15024	3005	46
3	15044	3010	47
3	15059	3010	46
3	15085	3015	45
3	15108	3020	46
3	15122	3020	45
3	15141	3025	44
3	15157	3030	45
3	15168	3030	44
3	15186	3035	44
3	15201	3040	45
3	15214	3040	45
3	15231	3045	45
3	15244	3050	46
3	15261	3050	46
3	15280	3055	46
3	15293	3060	47
3	15306	3060	46
3	15319	3065	45
3	15340	3070	46
3	15349	3070	45
3	15370	3075	44
3	15393	3080	45
3	15402	3080	44
3	15427	3085	44
3	15448	3090	45
3	15469	3090	45
3	15491	3095	45
3	15501	3100	46
3	15523	3100	46
3	15544	3105	45
3	15556	3110	46
3	15571	3110	45
3	15587	3115	44
3	15603	3120	45
3	15615	3120	44
3	15632	3125	43
3	15650	3130	44
3	15661	3130	43
3	15683	3135	42
3	15706	3140	43
3	15717	3140	42
3	15742	3145	41
3	15767	3150	42
3	15778	3150	41
3	15806	3155	40
3	15830	3160	41
3	15840	3160	40
3	15861	3165	40
3	15881	3170	41
3	15899	3170	41
3	15918	3175	41
3	15931	3180	42
3	15951	3180	42
3	15970	3185	42
3	15977	3190	43
3	15992	3190	43
3	16007	3195	42
3	16020	3200	43
3	16031	3200	42
3	16049	3205	41
3	16069	3210	42
3	16080	3210	41
3	16104	3215	40
3	16123	3220	41
3	16132	3220	40
3	16152	3225	39
3	16175	3230	40
3	16184	3230	39
3	16205	3235	38
3	16230	3240	39
3	16239	3240	38
3	16260	3245	37
3	16282	3250	38
3	16291	3250	37
3	16315	3255	37
3	16335	3260	38
3	16353	3260	38
3	16375	3265	38
3	16388	3270	39
3	16409	3270	38
3	16434	3275	37
3	16450	3280	38
3	16469	3280	37
3	16490	3285	36
3	16504	3290	37
3	16517	3290	36
3	16536	3295	35
3	16553	3300	36
3	16566	3300	35
3	16587	3305	34
3	16603	3310	35
3	16614	3310	34
3	16635	3315	34
3	16652	3320	35
3	16670	3320	35
3	16692	3325	35
3	16703	3330	36
3	16723	3330	36
3	16747	3335	36
3	16760	3340	37
3	16777	3340	36
3	16797	3345	36
3	16812	3350	37
3	16831	3350	37
3	16850	3355	37
3	16861	3360	38
3	16880	3360	38
3	16903	3365	38
3	16916	3370	39
3	16939	3370	38
3	16964	3375	38
3	16976	3380	39
3	16996	3380	39
3	17011	3385	39
3	17021	3390	40
3	17034	3390	39
3	17052	3395	38
3	17069	3400	39
3	17081	3400	39
3	17108	3405	39
3	17119	3410	40
3	17138	3410	40
3	17159	3415	40
3	17169	3420	41
3	17190	3420	41
3	17208	3425	40
3	17220	3430	41
3	17233	3430	40
3	17253	3435	39
3	17271	3440	40
3	17283	3440	39
3	17300	3445	38
3	17319	3450	39
3	17329	3450	39
3	17358	3455	39
3	17370	3460	40
3	17390	3460	40
3	17409	3465	39
3	17423	3470	40
3	17436	3470	39
3	17452	3475	38
3	17471	3480	39
3	17482	3480	39
3	17505	3485	39
3	17519	3490	40
3	17540	3490	40
3	17563	3495	40
3	17574	3500	41
3	17596	3500	41
3	17618	3505	40
3	17632	3510	41
3	17649	3510	40
3	17672	3515	39
3	17687	3520	40
3	17702	3520	39
3	17724	3525	38
3	17743	3530	39
3	17758	3530	38
3	17781	3535	37
3	17799	3540	38
3	17808	3540	37
3	17830	3545	36
3	17854	3550	37
3	17863	3550	36
3	17888	3555	36
3	17912	3560	37
3	17931	3560	37
3	17952	3565	37
3	17962	3570	38
3	17980	3570	38
3	18000	3575	38
3	18011	3580	39
3	18028	3580	38
3	18050	3585	37
3	18067	3590	38
3	18084	3590	37
3	18109	3595	36
3	18129	3600	37
3	18141	3600	37
4	5	5	0
4	15	10	1
4	26	10	1
4	49	15	1
4	62	20	2
4	73	20	2
4	97	25	2
4	106	30	3
4	121	30	3
4	149	35	3
4	156	40	4
4	170	40	4
4	192	45	3
4	205	50	4
4	213	50	3
4	232	55	2
4	254	60	3
4	262	60	2
4	284	65	2
4	306	70	3
4	322	70	3
4	345	75	3
4	355	80	4
4	367	80	3
4	383	85	2
4	403	90	3
4	413	90	2
4	435	95	1
4	458	100	2
4	466	100	1
4	491	105	0
4	511	110	1
4	526	110	1
4	546	115	0
4	561	120	1
4	579	120	1
4	601	125	0
4	616	130	1
4	633	130	1
4	652	135	0
4	666	140	1
4	682	140	1
4	700	145	1
4	712	150	2
4	726	150	2
4	749	155	2
4	760	160	3
4	776	160	3
4	800	165	3
4	811	170	4
4	826	170	4
4	851	175	4
4	859	180	5
4	874	180	5
4	887	185	5
4	897	190	6
4	910	190	6
4	927	195	6
4	942	200	7
4	958	200	7
4	979	205	7
4	988	210	8
4	1003	210	8
4	1023	215	8
4	1035	220	9
4	1052	220	9
4	1079	225	9
4	1089	230	10
4	1107	230	10
4	1124	235	10
4	1136	240	11
4	1148	240	10
4	1162	245	9
4	1179	250	10
4	1189	250	9
4	1208	255	8
4	1229	260	9
4	1237	260	8
4	1259	265	7
4	1285	270	8
4	1293	270	7
4	1320	275	6
4	1344	280	7
4	1352	280	7
4	1382	285	7
4	1393	290	8
4	1411	290	8
4	1436	295	8
4	1446	300	9
4	1460	300	8
4	1476	305	7
4	1493	310	8
4	1504	310	7
4	1520	315	6
4	1540	320	7
4	1549	320	7
4	1578	325	7
4	1590	330	8
4	1609	330	8
4	1632	335	8
4	1640	340	9
4	1656	340	9
4	1672	345	8
4	1687	350	9
4	1699	350	8
4	1720	355	7
4	1736	360	8
4	1744	360	7
4	1762	365	6
4	1785	370	7
4	1793	370	6
4	1813	375	5
4	1837	380	6
4	1845	380	5
4	1871	385	5
4	1899	390	6
4	1922	390	6
4	1943	395	6
4	1955	400	7
4	1976	400	7
4	1997	405	6
4	2011	410	7
4	2025	410	7
4	2046	415	7
4	2058	420	8
4	2078	420	8
4	2102	425	8
4	2114	430	9
4	2133	430	9
4	2153	435	9
4	2165	440	10
4	2181	440	10
4	2198	445	10
4	2210	450	11
4	2227	450	11
4	2252	455	11
4	2266	460	12
4	2283	460	11
4	2302	465	10
4	2319	470	11
4	2331	470	10
4	2351	475	9
4	2369	480	10
4	2381	480	9
4	2403	485	9
4	2423	490	10
4	2440	490	10
4	2458	495	10
4	2469	500	11
4	2483	500	10
4	2503	505	9
4	2521	510	10
4	2535	510	9
4	2559	515	9
4	2576	520	10
4	2593	520	10
4	2609	525	10
4	2622	530	11
4	2636	530	10
4	2658	535	9
4	2679	540	10
4	2693	540	10
4	2723	545	10
4	2737	550	11
4	2759	550	11
4	2779	555	11
4	2789	560	12
4	2805	560	12
4	2818	565	12
4	2833	570	13
4	2845	570	13
4	2860	575	13
4	2870	580	14
4	2883	580	14
4	2901	585	13
4	2917	590	14
4	2929	590	13
4	2950	595	12
4	2971	600	13
4	2983	600	12
4	3008	605	11
4	3029	610	12
4	3040	610	11
4	3057	615	10
4	3075	620	11
4	3083	620	10
4	3104	625	9
4	3126	630	10
4	3134	630	9
4	3153	635	9
4	3174	640	10
4	3193	640	10
4	3208	645	10
4	3219	650	11
4	3233	650	10
4	3252	655	9
4	3270	660	10
4	3280	660	9
4	3303	665	8
4	3329	670	9
4	3339	670	8
4	3363	675	8
4	3384	680	9
4	3404	680	9
4	3428	685	9
4	3439	690	10
4	3454	690	10
4	3469	695	10
4	3481	700	11
4	3496	700	11
4	3516	705	11
4	3527	710	12
4	3545	710	12
4	3565	715	12
4	3577	720	13
4	3599	720	13
4	3622	725	13
4	3635	730	14
4	3655	730	13
4	3675	735	12
4	3689	740	13
4	3703	740	12
4	3723	745	12
4	3739	750	13
4	3756	750	13
4	3781	755	13
4	3793	760	14
4	3808	760	14
4	3832	765	14
4	3843	770	15
4	3860	770	15
4	3881	775	15
4	3896	780	16
4	3913	780	16
4	3928	785	16
4	3942	790	17
4	3959	790	17
4	3978	795	17
4	3991	800	18
4	4010	800	18
4	4029	805	18
4	4037	810	19
4	4052	810	19
4	4075	815	19
4	4086	820	20
4	4105	820	20
4	4127	825	20
4	4137	830	21
4	4155	830	21
4	4179	835	21
4	4190	840	22
4	4209	840	22
4	4234	845	22
4	4245	850	23
4	4263	850	22
4	4285	855	21
4	4301	860	22
4	4314	860	22
4	4334	865	22
4	4342	870	23
4	4355	870	23
4	4374	875	23
4	4385	880	24
4	4404	880	24
4	4427	885	23
4	4443	890	24
4	4459	890	23
4	4479	895	22
4	4495	900	23
4	4507	900	22
4	4526	905	21
4	4545	910	22
4	4556	910	22
4	4580	915	22
4	4592	920	23
4	4612	920	23
4	4633	925	23
4	4646	930	24
4	4661	930	24
4	4674	935	24
4	4687	940	25
4	4703	940	25
4	4721	945	25
4	4729	950	26
4	4744	950	26
4	4764	955	26
4	4776	960	27
4	4794	960	27
4	4812	965	27
4	4824	970	28
4	4840	970	27
4	4862	975	26
4	4880	980	27
4	4894	980	26
4	4915	985	26
4	4934	990	27
4	4950	990	27
4	4972	995	27
4	4985	1000	28
4	5004	1000	28
4	5022	1005	27
4	5038	1010	28
4	5052	1010	27
4	5073	1015	26
4	5092	1020	27
4	5104	1020	27
4	5127	1025	27
4	5135	1030	28
4	5150	1030	28
4	5163	1035	27
4	5180	1040	28
4	5192	1040	27
4	5215	1045	26
4	5239	1050	27
4	5250	1050	26
4	5273	1055	25
4	5295	1060	26
4	5303	1060	25
4	5324	1065	24
4	5348	1070	25
4	5356	1070	25
4	5382	1075	25
4	5394	1080	26
4	5412	1080	26
4	5430	1085	26
4	5437	1090	27
4	5450	1090	27
4	5464	1095	26
4	5481	1100	27
4	5491	1100	26
4	5514	1105	25
4	5536	1110	26
4	5546	1110	26
4	5574	1115	26
4	5587	1120	27
4	5605	1120	27
4	5627	1125	27
4	5639	1130	28
4	5653	1130	27
4	5668	1135	26
4	5684	1140	27
4	5692	1140	26
4	5710	1145	25
4	5733	1150	26
4	5741	1150	25
4	5765	1155	24
4	5787	1160	25
4	5795	1160	24
4	5817	1165	23
4	5837	1170	24
4	5845	1170	23
4	5865	1175	22
4	5890	1180	23
4	5898	1180	22
4	5920	1185	21
4	5946	1190	22
4	5954	1190	21
4	5980	1195	20
4	6001	1200	21
4	6009	1200	20
4	6029	1205	19
4	6053	1210	20
4	6061	1210	19
4	6081	1215	19
4	6100	1220	20
4	6115	1220	20
4	6138	1225	20
4	6151	1230	21
4	6172	1230	21
4	6193	1235	20
4	6208	1240	21
4	6223	1240	20
4	6243	1245	19
4	6261	1250	20
4	6272	1250	19
4	6288	1255	18
4	6308	1260	19
4	6316	1260	18
4	6332	1265	17
4	6351	1270	18
4	6359	1270	18
4	6380	1275	18
4	6392	1280	19
4	6410	1280	19
4	6433	1285	18
4	6454	1290	19
4	6470	1290	18
4	6488	1295	17
4	6502	1300	18
4	6510	1300	17
4	6528	1305	16
4	6551	1310	17
4	6559	1310	16
4	6582	1315	15
4	6607	1320	16
4	6615	1320	16
4	6641	1325	16
4	6655	1330	17
4	6671	1330	17
4	6690	1335	17
4	6703	1340	18
4	6722	1340	18
4	6746	1345	18
4	6759	1350	19
4	6775	1350	18
4	6794	1355	17
4	6811	1360	18
4	6825	1360	17
4	6847	1365	17
4	6862	1370	18
4	6880	1370	18
4	6904	1375	18
4	6917	1380	19
4	6937	1380	19
4	6956	1385	19
4	6965	1390	20
4	6982	1390	20
4	6998	1395	19
4	7015	1400	20
4	7029	1400	19
4	7049	1405	19
4	7064	1410	20
4	7079	1410	20
4	7096	1415	20
4	7107	1420	21
4	7123	1420	21
4	7139	1425	20
4	7155	1430	21
4	7169	1430	20
4	7193	1435	20
4	7210	1440	21
4	7230	1440	21
4	7249	1445	21
4	7257	1450	22
4	7272	1450	22
4	7287	1455	22
4	7300	1460	23
4	7318	1460	23
4	7332	1465	22
4	7348	1470	23
4	7361	1470	23
4	7387	1475	23
4	7395	1480	24
4	7411	1480	24
4	7428	1485	24
4	7441	1490	25
4	7460	1490	25
4	7482	1495	24
4	7496	1500	25
4	7510	1500	24
4	7527	1505	23
4	7543	1510	24
4	7553	1510	23
4	7570	1515	22
4	7588	1520	23
4	7596	1520	22
4	7617	1525	22
4	7639	1530	23
4	7657	1530	23
4	7674	1535	23
4	7689	1540	24
4	7709	1540	24
4	7729	1545	24
4	7742	1550	25
4	7760	1550	24
4	7784	1555	24
4	7801	1560	25
4	7825	1560	25
4	7850	1565	25
4	7863	1570	26
4	7883	1570	25
4	7900	1575	24
4	7914	1580	25
4	7928	1580	24
4	7947	1585	23
4	7962	1590	24
4	7973	1590	23
4	7989	1595	22
4	8009	1600	23
4	8019	1600	22
4	8037	1605	21
4	8057	1610	22
4	8067	1610	22
4	8094	1615	22
4	8106	1620	23
4	8126	1620	23
4	8145	1625	23
4	8158	1630	24
4	8178	1630	24
4	8200	1635	23
4	8212	1640	24
4	8225	1640	24
4	8245	1645	24
4	8256	1650	25
4	8273	1650	25
4	8286	1655	25
4	8299	1660	26
4	8317	1660	26
4	8338	1665	25
4	8355	1670	26
4	8369	1670	25
4	8395	1675	24
4	8419	1680	25
4	8433	1680	25
4	8455	1685	25
4	8467	1690	26
4	8484	1690	26
4	8508	1695	26
4	8517	1700	27
4	8534	1700	27
4	8547	1705	27
4	8559	1710	28
4	8573	1710	27
4	8592	1715	26
4	8608	1720	27
4	8621	1720	27
4	8643	1725	27
4	8653	1730	28
4	8669	1730	28
4	8686	1735	28
4	8701	1740	29
4	8716	1740	29
4	8739	1745	29
4	8751	1750	30
4	8768	1750	30
4	8787	1755	30
4	8797	1760	31
4	8813	1760	31
4	8830	1765	31
4	8842	1770	32
4	8860	1770	32
4	8882	1775	32
4	8894	1780	33
4	8915	1780	33
4	8936	1785	33
4	8948	1790	34
4	8964	1790	34
4	8979	1795	34
4	8987	1800	35
4	9000	1800	35
4	9016	1805	35
4	9026	1810	36
4	9039	1810	36
4	9063	1815	36
4	9077	1820	37
4	9094	1820	36
4	9113	1825	36
4	9126	1830	37
4	9144	1830	37
4	9164	1835	37
4	9174	1840	38
4	9191	1840	38
4	9213	1845	38
4	9227	1850	39
4	9243	1850	39
4	9251	1855	38
4	9268	1860	39
4	9278	1860	38
4	9299	1865	37
4	9318	1870	38
4	9328	1870	37
4	9347	1875	36
4	9366	1880	37
4	9374	1880	37
4	9397	1885	37
4	9409	1890	38
4	9424	1890	38
4	9441	1895	37
4	9459	1900	38
4	9468	1900	37
4	9486	1905	37
4	9505	1910	38
4	9522	1910	38
4	9542	1915	38
4	9553	1920	39
4	9570	1920	39
4	9584	1925	38
4	9600	1930	39
4	9614	1930	38
4	9636	1935	37
4	9654	1940	38
4	9666	1940	37
4	9688	1945	37
4	9704	1950	38
4	9720	1950	38
4	9739	1955	38
4	9752	1960	39
4	9769	1960	39
4	9788	1965	39
4	9799	1970	40
4	9815	1970	40
4	9828	1975	39
4	9842	1980	40
4	9852	1980	39
4	9870	1985	39
4	9887	1990	40
4	9903	1990	40
4	9919	1995	40
4	9932	2000	41
4	9944	2000	40
4	9960	2005	39
4	9980	2010	40
4	9990	2010	39
4	10012	2015	38
4	10027	2020	39
4	10037	2020	38
4	10055	2025	38
4	10074	2030	39
4	10092	2030	39
4	10113	2035	39
4	10128	2040	40
4	10146	2040	40
4	10166	2045	40
4	10178	2050	41
4	10195	2050	41
4	10210	2055	40
4	10227	2060	41
4	10241	2060	40
4	10264	2065	40
4	10278	2070	41
4	10294	2070	41
4	10315	2075	41
4	10326	2080	42
4	10346	2080	42
4	10370	2085	42
4	10383	2090	43
4	10403	2090	43
4	10423	2095	43
4	10436	2100	44
4	10454	2100	44
4	10473	2105	44
4	10486	2110	45
4	10500	2110	44
4	10524	2115	43
4	10546	2120	44
4	10559	2120	44
4	10585	2125	44
4	10597	2130	45
4	10614	2130	45
4	10630	2135	44
4	10648	2140	45
4	10662	2140	44
4	10686	2145	43
4	10708	2150	44
4	10721	2150	43
4	10743	2155	42
4	10760	2160	43
4	10770	2160	42
4	10790	2165	41
4	10814	2170	42
4	10823	2170	42
4	10847	2175	42
4	10859	2180	43
4	10877	2180	43
4	10896	2185	42
4	10915	2190	43
4	10930	2190	42
4	10953	2195	41
4	10975	2200	42
4	10987	2200	42
4	11012	2205	42
4	11024	2210	43
4	11042	2210	43
4	11056	2215	43
4	11073	2220	44
4	11093	2220	44
4	11117	2225	44
4	11129	2230	45
4	11147	2230	44
4	11170	2235	44
4	11185	2240	45
4	11202	2240	45
4	11218	2245	45
4	11229	2250	46
4	11248	2250	46
4	11265	2255	45
4	11280	2260	46
4	11292	2260	45
4	11314	2265	44
4	11332	2270	45
4	11342	2270	44
4	11356	2275	44
4	11372	2280	45
4	11387	2280	45
4	11405	2285	45
4	11417	2290	46
4	11437	2290	46
4	11461	2295	46
4	11471	2300	47
4	11491	2300	47
4	11511	2305	46
4	11526	2310	47
4	11544	2310	46
4	11565	2315	45
4	11580	2320	46
4	11593	2320	46
4	11613	2325	46
4	11624	2330	47
4	11643	2330	47
4	11660	2335	47
4	11668	2340	48
4	11680	2340	48
4	11688	2345	47
4	11705	2350	48
4	11713	2350	47
4	11728	2355	46
4	11748	2360	47
4	11756	2360	46
4	11775	2365	45
4	11797	2370	46
4	11805	2370	45
4	11827	2375	44
4	11852	2380	45
4	11860	2380	44
4	11885	2385	44
4	11911	2390	45
4	11932	2390	45
4	11952	2395	45
4	11964	2400	46
4	11984	2400	46
4	12000	2405	45
4	12015	2410	46
4	12029	2410	45
4	12045	2415	45
4	12059	2420	46
4	12075	2420	46
4	12102	2425	46
4	12116	2430	47
4	12135	2430	46
4	12153	2435	45
4	12167	2440	46
4	12181	2440	45
4	12197	2445	44
4	12210	2450	45
4	12218	2450	44
4	12233	2455	43
4	12253	2460	44
4	12261	2460	43
4	12285	2465	42
4	12311	2470	43
4	12319	2470	42
4	12345	2475	41
4	12374	2480	42
4	12382	2480	41
4	12405	2485	40
4	12431	2490	41
4	12439	2490	40
4	12461	2495	39
4	12486	2500	40
4	12494	2500	40
4	12525	2505	40
4	12538	2510	41
4	12559	2510	41
4	12582	2515	40
4	12597	2520	41
4	12615	2520	40
4	12633	2525	39
4	12649	2530	40
4	12661	2530	39
4	12683	2535	39
4	12696	2540	40
4	12710	2540	40
4	12728	2545	40
4	12740	2550	41
4	12758	2550	41
4	12780	2555	41
4	12795	2560	42
4	12816	2560	41
4	12837	2565	41
4	12847	2570	42
4	12861	2570	42
4	12873	2575	42
4	12885	2580	43
4	12902	2580	43
4	12920	2585	43
4	12929	2590	44
4	12944	2590	44
4	12956	2595	43
4	12972	2600	44
4	12984	2600	43
4	13003	2605	43
4	13019	2610	44
4	13034	2610	44
4	13049	2615	44
4	13062	2620	45
4	13076	2620	45
4	13093	2625	45
4	13103	2630	46
4	13116	2630	46
4	13130	2635	46
4	13142	2640	47
4	13156	2640	47
4	13167	2645	46
4	13185	2650	47
4	13195	2650	46
4	13216	2655	45
4	13241	2660	46
4	13251	2660	46
4	13280	2665	46
4	13292	2670	47
4	13311	2670	47
4	13335	2675	47
4	13348	2680	48
4	13369	2680	48
4	13388	2685	47
4	13403	2690	48
4	13419	2690	47
4	13436	2695	46
4	13452	2700	47
4	13466	2700	46
4	13486	2705	46
4	13502	2710	47
4	13521	2710	47
4	13540	2715	47
4	13551	2720	48
4	13568	2720	48
4	13585	2725	48
4	13599	2730	49
4	13610	2730	49
4	13631	2735	49
4	13643	2740	50
4	13660	2740	50
4	13679	2745	50
4	13692	2750	51
4	13708	2750	51
4	13724	2755	50
4	13740	2760	51
4	13754	2760	51
4	13774	2765	51
4	13788	2770	52
4	13806	2770	52
4	13827	2775	52
4	13841	2780	53
4	13859	2780	53
4	13878	2785	53
4	13890	2790	54
4	13907	2790	54
4	13926	2795	53
4	13943	2800	54
4	13959	2800	53
4	13983	2805	52
4	13999	2810	53
4	14009	2810	52
4	14028	2815	51
4	14049	2820	52
4	14058	2820	51
4	14076	2825	50
4	14100	2830	51
4	14108	2830	50
4	14127	2835	49
4	14146	2840	50
4	14154	2840	49
4	14171	2845	48
4	14193	2850	49
4	14201	2850	48
4	14226	2855	47
4	14251	2860	48
4	14259	2860	47
4	14283	2865	47
4	14304	2870	48
4	14322	2870	48
4	14341	2875	48
4	14352	2880	49
4	14366	2880	48
4	14386	2885	47
4	14405	2890	48
4	14419	2890	47
4	14443	2895	46
4	14462	2900	47
4	14474	2900	46
4	14497	2905	46
4	14517	2910	47
4	14536	2910	47
4	14557	2915	47
4	14571	2920	48
4	14590	2920	48
4	14613	2925	48
4	14622	2930	49
4	14640	2930	49
4	14658	2935	48
4	14675	2940	49
4	14691	2940	49
4	14716	2945	49
4	14727	2950	50
4	14747	2950	50
4	14768	2955	50
4	14778	2960	51
4	14796	2960	51
4	14815	2965	51
4	14831	2970	52
4	14851	2970	51
4	14879	2975	50
4	14894	2980	51
4	14910	2980	50
4	14932	2985	50
4	14946	2990	51
4	14961	2990	51
4	14978	2995	51
4	14990	3000	52
4	15006	3000	52
4	15026	3005	51
4	15045	3010	52
4	15061	3010	51
4	15087	3015	50
4	15109	3020	51
4	15124	3020	51
4	15147	3025	51
4	15158	3030	52
4	15176	3030	52
4	15193	3035	52
4	15202	3040	53
4	15215	3040	53
4	15226	3045	52
4	15245	3050	53
4	15254	3050	52
4	15271	3055	51
4	15294	3060	52
4	15302	3060	52
4	15329	3065	52
4	15341	3070	53
4	15360	3070	53
4	15381	3075	53
4	15394	3080	54
4	15412	3080	53
4	15434	3085	52
4	15449	3090	53
4	15461	3090	52
4	15483	3095	52
4	15502	3100	53
4	15524	3100	53
4	15547	3105	53
4	15557	3110	54
4	15575	3110	54
4	15589	3115	53
4	15604	3120	54
4	15617	3120	54
4	15638	3125	54
4	15651	3130	55
4	15670	3130	55
4	15694	3135	55
4	15707	3140	56
4	15730	3140	56
4	15755	3145	56
4	15768	3150	57
4	15790	3150	56
4	15816	3155	55
4	15831	3160	56
4	15847	3160	55
4	15866	3165	54
4	15882	3170	55
4	15894	3170	54
4	15913	3175	53
4	15932	3180	54
4	15944	3180	54
4	15971	3185	54
4	15978	3190	55
4	15993	3190	55
4	16010	3195	55
4	16021	3200	56
4	16037	3200	56
4	16056	3205	56
4	16070	3210	57
4	16086	3210	56
4	16109	3215	55
4	16124	3220	56
4	16136	3220	55
4	16156	3225	54
4	16176	3230	55
4	16188	3230	55
4	16217	3235	55
4	16231	3240	56
4	16251	3240	56
4	16270	3245	56
4	16283	3250	57
4	16301	3250	57
4	16322	3255	56
4	16336	3260	57
4	16348	3260	56
4	16368	3265	55
4	16389	3270	56
4	16401	3270	55
4	16426	3275	54
4	16451	3280	55
4	16463	3280	55
4	16495	3285	55
4	16505	3290	56
4	16522	3290	56
4	16541	3295	56
4	16554	3300	57
4	16573	3300	57
4	16593	3305	57
4	16604	3310	58
4	16618	3310	57
4	16637	3315	56
4	16653	3320	57
4	16663	3320	56
4	16683	3325	55
4	16704	3330	56
4	16714	3330	55
4	16736	3335	54
4	16761	3340	55
4	16769	3340	54
4	16792	3345	54
4	16813	3350	55
4	16832	3350	55
4	16851	3355	55
4	16862	3360	56
4	16876	3360	55
4	16894	3365	54
4	16917	3370	55
4	16929	3370	54
4	16957	3375	54
4	16977	3380	55
4	16997	3380	55
4	17012	3385	55
4	17022	3390	56
4	17038	3390	56
4	17058	3395	56
[...]
48	13984	2805	525
48	14010	2810	520
48	14029	2815	515
48	14059	2820	510
48	14077	2825	505
48	14109	2830	500
48	14128	2835	495
48	14155	2840	490
48	14172	2845	485
48	14202	2850	480
48	14227	2855	475
48	14260	2860	470
48	14367	2880	480
48	14387	2885	475
48	14420	2890	470
48	14444	2895	465
48	14475	2900	460
48	14659	2935	485
48	14852	2970	510
48	14880	2975	505
48	14911	2980	500
48	15027	3005	515
48	15062	3010	510
48	15088	3015	505
48	15227	3045	525
48	15255	3050	520
48	15272	3055	515
48	15413	3080	530
48	15435	3085	525
48	15462	3090	520
48	15590	3115	535
48	15791	3150	560
48	15817	3155	555
48	15848	3160	550
48	15867	3165	545
48	15895	3170	540
48	15914	3175	535
48	16087	3210	560
48	16110	3215	555
48	16137	3220	550
48	16157	3225	545
48	16323	3255	565
48	16349	3260	560
48	16369	3265	555
48	16402	3270	550
48	16427	3275	545
48	16619	3310	570
48	16638	3315	565
48	16664	3320	560
48	16684	3325	555
48	16715	3330	550
48	16737	3335	545
48	16770	3340	540
48	16877	3360	550
48	16895	3365	545
48	16930	3370	540
48	17105	3405	565
48	17132	3410	560
48	17150	3415	555
48	17181	3420	550
48	17305	3445	565
48	17333	3450	560
48	17350	3455	555
48	17382	3460	550
48	17403	3465	545
48	17433	3470	540
48	17451	3475	535
48	17481	3480	530
48	17498	3485	525
48	17529	3490	520
48	17551	3495	515
48	17584	3500	510
48	17609	3505	505
48	17642	3510	500
48	17666	3515	495
48	17697	3520	490
48	17719	3525	485
48	17753	3530	480
48	17899	3555	495
48	17928	3560	490
48	18116	3595	515
48	18146	3600	510
49	193	45	1
49	214	50	1
49	233	55	1
49	263	60	1
49	368	80	1
49	384	85	1
49	414	90	1
49	436	95	0
49	467	100	0
49	492	105	0
49	547	115	0
49	602	125	0
49	653	135	0
49	1149	240	1
49	1163	245	1
49	1190	250	1
49	1209	255	1
49	1238	260	1
49	1260	265	1
49	1294	270	1
49	1321	275	1
49	1461	300	1
49	1477	305	1
49	1505	310	1
49	1521	315	1
49	1673	345	1
49	1700	350	1
49	1721	355	1
49	1745	360	1
49	1763	365	1
49	1794	370	1
49	1814	375	1
49	1846	380	1
49	1998	405	1
49	2284	460	1
49	2303	465	1
49	2332	470	1
49	2352	475	1
49	2382	480	1
49	2484	500	1
49	2504	505	1
49	2536	510	1
49	2637	530	1
49	2659	535	1
49	2902	585	1
49	2930	590	1
49	2951	595	1
49	2984	600	1
49	3009	605	1
49	3041	610	1
49	3058	615	1
49	3084	620	1
49	3105	625	1
49	3135	630	1
49	3234	650	1
49	3253	655	1
49	3281	660	1
49	3304	665	1
49	3340	670	1
49	3656	730	1
49	3676	735	1
49	3704	740	1
49	4264	850	1
49	4286	855	1
49	4428	885	1
49	4460	890	1
49	4480	895	1
49	4508	900	1
49	4527	905	1
49	4841	970	1
49	4863	975	1
49	4895	980	1
49	5023	1005	1
49	5053	1010	1
49	5074	1015	1
49	5164	1035	1
49	5193	1040	1
49	5216	1045	1
49	5251	1050	1
49	5274	1055	1
49	5304	1060	1
49	5325	1065	1
49	5465	1095	1
49	5492	1100	1
49	5515	1105	1
49	5654	1130	1
49	5669	1135	1
49	5693	1140	1
49	5711	1145	1
49	5742	1150	1
49	5766	1155	1
49	5796	1160	1
49	5818	1165	1
49	5846	1170	1
49	5866	1175	1
49	5899	1180	1
49	5921	1185	1
49	5955	1190	1
49	5981	1195	1
49	6010	1200	1
49	6030	1205	1
49	6062	1210	1
49	6194	1235	1
49	6224	1240	1
49	6244	1245	1
49	6273	1250	1
49	6289	1255	1
49	6317	1260	1
49	6333	1265	1
49	6434	1285	1
49	6471	1290	1
49	6489	1295	1
49	6511	1300	1
49	6529	1305	1
49	6560	1310	1
49	6583	1315	1
49	6776	1350	1
49	6795	1355	1
49	6826	1360	1
49	6999	1395	1
49	7030	1400	1
49	7140	1425	1
49	7170	1430	1
49	7333	1465	1
49	7483	1495	1
49	7511	1500	1
49	7528	1505	1
49	7554	1510	1
49	7571	1515	1
49	7597	1520	1
49	7761	1550	1
49	7884	1570	1
49	7901	1575	1
49	7929	1580	1
49	7948	1585	1
49	7974	1590	1
49	7990	1595	1
49	8020	1600	1
49	8038	1605	1
49	8201	1635	1
49	8339	1665	1
49	8370	1670	1
49	8396	1675	1
49	8574	1710	1
49	8593	1715	1
49	9095	1820	1
49	9252	1855	1
49	9279	1860	1
49	9300	1865	1
49	9329	1870	1
49	9348	1875	1
49	9442	1895	1
49	9469	1900	1
49	9585	1925	1
49	9615	1930	1
49	9637	1935	1
49	9667	1940	1
49	9829	1975	1
49	9853	1980	1
49	9945	2000	1
49	9961	2005	1
49	9991	2010	1
49	10013	2015	1
49	10038	2020	1
49	10211	2055	1
49	10242	2060	1
49	10501	2110	1
49	10525	2115	1
49	10631	2135	1
49	10663	2140	1
49	10687	2145	1
49	10722	2150	1
49	10744	2155	1
49	10771	2160	1
49	10791	2165	1
49	10897	2185	1
49	10931	2190	1
49	10954	2195	1
49	11148	2230	1
49	11266	2255	1
49	11293	2260	1
49	11315	2265	1
49	11343	2270	1
49	11512	2305	1
49	11545	2310	1
49	11566	2315	1
49	11689	2345	1
49	11714	2350	1
49	11729	2355	1
49	11757	2360	1
49	11776	2365	1
49	11806	2370	1
49	11828	2375	1
49	11861	2380	1
49	12001	2405	1
49	12030	2410	1
49	12136	2430	1
49	12154	2435	1
49	12182	2440	1
49	12198	2445	1
49	12219	2450	1
49	12234	2455	1
49	12262	2460	1
49	12286	2465	1
49	12320	2470	1
49	12346	2475	1
49	12383	2480	1
49	12406	2485	1
49	12440	2490	1
49	12462	2495	1
49	12583	2515	1
49	12616	2520	1
49	12634	2525	1
49	12662	2530	1
49	12817	2560	1
49	12957	2595	1
49	12985	2600	1
49	13168	2645	1
49	13196	2650	1
49	13217	2655	1
49	13389	2685	1
49	13420	2690	1
49	13437	2695	1
49	13467	2700	1
49	13725	2755	1
49	13927	2795	1
49	13960	2800	1
49	13984	2805	1
49	14010	2810	1
49	14029	2815	1
49	14059	2820	1
49	14077	2825	1
49	14109	2830	1
49	14128	2835	1
49	14155	2840	1
49	14172	2845	1
49	14202	2850	1
49	14227	2855	1
49	14260	2860	1
49	14367	2880	1
49	14387	2885	1
49	14420	2890	1
49	14444	2895	1
49	14475	2900	1
49	14659	2935	1
49	14852	2970	1
49	14880	2975	1
49	14911	2980	1
49	15027	3005	1
49	15062	3010	1
49	15088	3015	1
49	15227	3045	1
49	15255	3050	1
49	15272	3055	1
49	15413	3080	1
49	15435	3085	1
49	15462	3090	1
49	15590	3115	1
49	15791	3150	1
49	15817	3155	1
49	15848	3160	1
49	15867	3165	1
49	15895	3170	1
49	15914	3175	1
49	16087	3210	1
49	16110	3215	1
49	16137	3220	1
49	16157	3225	1
49	16323	3255	1
49	16349	3260	1
49	16369	3265	1
49	16402	3270	1
49	16427	3275	1
49	16619	3310	1
49	16638	3315	1
49	16664	3320	1
49	16684	3325	1
49	16715	3330	1
49	16737	3335	1
49	16770	3340	1
49	16877	3360	1
49	16895	3365	1
49	16930	3370	1
49	17105	3405	1
49	17132	3410	1
49	17150	3415	1
49	17181	3420	1
49	17305	3445	1
49	17333	3450	1
49	17350	3455	1
49	17382	3460	1
49	17403	3465	1
49	17433	3470	1
49	17451	3475	1
49	17481	3480	1
49	17498	3485	1
49	17529	3490	1
49	17551	3495	1
49	17584	3500	1
49	17609	3505	1
49	17642	3510	1
49	17666	3515	1
49	17697	3520	1
49	17719	3525	1
49	17753	3530	1
49	17899	3555	1
49	17928	3560	1
49	18116	3595	1
49	18146	3600	1
50	444	95	1
50	473	100	1
50	496	105	1
50	520	110	1
50	539	115	1
50	570	120	1
50	593	125	1
50	625	130	1
50	645	135	1
50	675	140	1
50	849	175	1
50	955	200	1
50	973	205	1
50	999	210	1
50	1017	215	1
50	1046	220	1
50	1069	225	1
50	1192	250	1
50	1304	270	1
50	1408	290	1
50	1429	295	1
50	1525	315	1
50	1551	320	1
50	1568	325	1
50	1599	330	1
50	1726	355	1
50	1747	360	1
50	1765	365	1
50	1886	385	1
50	1918	390	1
50	1939	395	1
50	1972	400	1
50	1994	405	1
50	2023	410	1
50	2039	415	1
50	2069	420	1
50	2091	425	1
50	2125	430	1
50	2144	435	1
50	2250	455	1
50	2698	540	1
50	2719	545	1
50	2753	550	1
50	3088	620	1
50	3189	640	1
50	3204	645	1
50	3232	650	1
50	3372	675	1
50	3401	680	1
50	3423	685	1
50	3596	720	1
50	3619	725	1
50	3651	730	1
50	3672	735	1
50	3700	740	1
50	3884	775	1
50	4072	815	1
50	4101	820	1
50	4232	845	1
50	4260	850	1
50	4400	880	1
50	4423	885	1
50	4456	890	1
50	4477	895	1
50	4506	900	1
50	4525	905	1
50	4555	910	1
50	4573	915	1
50	4601	920	1
50	4622	925	1
50	4922	985	1
50	4949	990	1
50	4966	995	1
50	4998	1000	1
50	5020	1005	1
50	5051	1010	1
50	5072	1015	1
50	5195	1040	1
50	5218	1045	1
50	5407	1080	1
50	5496	1100	1
50	5519	1105	1
50	5550	1110	1
50	5569	1115	1
50	5600	1120	1
50	5717	1145	1
50	5748	1150	1
50	5909	1180	1
50	5929	1185	1
50	5963	1190	1
50	6137	1225	1
50	6166	1230	1
50	6321	1260	1
50	6335	1265	1
50	6361	1270	1
50	6374	1275	1
50	6401	1280	1
50	6424	1285	1
50	6463	1290	1
50	6778	1350	1
50	6797	1355	1
50	6828	1360	1
50	7001	1395	1
50	7032	1400	1
50	7051	1405	1
50	7074	1410	1
50	7089	1415	1
50	7116	1420	1
50	7134	1425	1
50	7164	1430	1
50	7188	1435	1
50	7219	1440	1
50	7241	1445	1
50	7266	1450	1
50	7281	1455	1
50	7626	1525	1
50	7652	1530	1
50	7668	1535	1
50	7700	1540	1
50	7721	1545	1
50	7753	1550	1
50	7778	1555	1
50	7812	1560	1
50	7837	1565	1
50	7873	1570	1
50	8042	1605	1
50	8071	1610	1
50	8088	1615	1
50	8118	1620	1
50	8137	1625	1
50	8169	1630	1
50	8193	1635	1
50	8221	1640	1
50	8237	1645	1
50	8341	1665	1
50	8372	1670	1
50	8398	1675	1
50	8530	1700	1
50	8543	1705	1
50	8570	1710	1
50	8589	1715	1
50	8618	1720	1
50	8938	1785	1
50	9059	1815	1
50	9091	1820	1
50	9110	1825	1
50	9137	1830	1
50	9283	1860	1
50	9303	1865	1
50	9331	1870	1
50	9350	1875	1
50	9493	1905	1
50	9518	1910	1
50	9784	1965	1
50	9809	1970	1
50	9825	1975	1
50	9851	1980	1
50	9869	1985	1
50	10164	2045	1
50	10193	2050	1
50	10209	2055	1
50	10240	2060	1
50	10263	2065	1
50	10289	2070	1
50	10729	2150	1
50	10899	2185	1
50	10933	2190	1
50	10956	2195	1
50	10989	2200	1
50	11005	2205	1
50	11172	2235	1
50	11488	2300	1
50	11510	2305	1
50	11543	2310	1
50	11564	2315	1
50	11814	2370	1
50	11836	2375	1
50	11869	2380	1
50	11892	2385	1
50	11923	2390	1
50	11943	2395	1
50	11975	2400	1
50	11995	2405	1
50	12025	2410	1
50	12042	2415	1
50	12068	2420	1
50	12089	2425	1
50	12270	2460	1
50	12293	2465	1
50	12326	2470	1
50	12352	2475	1
50	12472	2495	1
50	12503	2500	1
50	12521	2505	1
50	12553	2510	1
50	12577	2515	1
50	12898	2580	1
50	12915	2585	1
50	13006	2605	1
50	13029	2610	1
50	13043	2615	1
50	13071	2620	1
50	13088	2625	1
50	13170	2645	1
50	13198	2650	1
50	13219	2655	1
50	13253	2660	1
50	13272	2665	1
50	13303	2670	1
50	13325	2675	1
50	13359	2680	1
50	13381	2685	1
50	13519	2710	1
50	13538	2715	1
50	13564	2720	1
50	13582	2725	1
50	13609	2730	1
50	13624	2735	1
50	13652	2740	1
50	13671	2745	1
50	13701	2750	1
50	13719	2755	1
50	13749	2760	1
50	13767	2765	1
50	13797	2770	1
50	14505	2905	1
50	14534	2910	1
50	14555	2915	1
50	14588	2920	1
50	14694	2940	1
50	14713	2945	1
50	14744	2950	1
50	14765	2955	1
50	14793	2960	1
50	14812	2965	1
50	14846	2970	1
50	14875	2975	1
50	14907	2980	1
50	15031	3005	1
50	15066	3010	1
50	15092	3015	1
50	15229	3045	1
50	15257	3050	1
50	15274	3055	1
50	15438	3085	1
50	15464	3090	1
50	15485	3095	1
50	15515	3100	1
50	15668	3130	1
50	15690	3135	1
50	15724	3140	1
50	15749	3145	1
50	15785	3150	1
50	16034	3200	1
50	16052	3205	1
50	16083	3210	1
50	16216	3235	1
50	16326	3255	1
50	16351	3260	1
50	16371	3265	1
50	16404	3270	1
50	16429	3275	1
50	16465	3280	1
50	16488	3285	1
50	16516	3290	1
50	16535	3295	1
50	16565	3300	1
50	16690	3325	1
50	16721	3330	1
50	16742	3335	1
50	16773	3340	1
50	16794	3345	1
50	16822	3350	1
50	16841	3355	1
50	16871	3360	1
50	16891	3365	1
50	16926	3370	1
50	16954	3375	1
50	17354	3455	1
50	17386	3460	1
50	17539	3490	1
50	17559	3495	1
50	17592	3500	1
50	17616	3505	1
50	17648	3510	1
50	17671	3515	1
50	17701	3520	1
50	17723	3525	1
50	17757	3530	1
50	17949	3565	1
50	17976	3570	1
50	18118	3595	1
51	444	95	85
51	473	100	80
51	496	105	75
51	520	110	70
51	539	115	65
51	570	120	60
51	593	125	55
51	625	130	50
51	645	135	45
51	675	140	40
51	849	175	65
51	955	200	80
51	973	205	75
51	999	210	70
51	1017	215	65
51	1046	220	60
51	1069	225	55
51	1192	250	70
51	1304	270	80
51	1408	290	90
51	1429	295	85
51	1525	315	95
51	1551	320	90
51	1568	325	85
51	1599	330	80
51	1726	355	95
51	1747	360	90
51	1765	365	85
51	1886	385	95
51	1918	390	90
51	1939	395	85
51	1972	400	80
51	1994	405	75
51	2023	410	70
51	2039	415	65
51	2069	420	60
51	2091	425	55
51	2125	430	50
51	2144	435	45
51	2250	455	55
51	2698	540	130
51	2719	545	125
51	2753	550	120
51	3088	620	180
51	3189	640	190
51	3204	645	185
51	3232	650	180
51	3372	675	195
51	3401	680	190
51	3423	685	185
51	3596	720	210
51	3619	725	205
51	3651	730	200
51	3672	735	195
51	3700	740	190
51	3884	775	215
51	4072	815	245
51	4101	820	240
51	4232	845	255
51	4260	850	250
51	4400	880	270
51	4423	885	265
51	4456	890	260
51	4477	895	255
51	4506	900	250
51	4525	905	245
51	4555	910	240
51	4573	915	235
51	4601	920	230
51	4622	925	225
51	4922	985	275
51	4949	990	270
51	4966	995	265
51	4998	1000	260
51	5020	1005	255
51	5051	1010	250
51	5072	1015	245
51	5195	1040	260
51	5218	1045	255
51	5407	1080	280
51	5496	1100	290
51	5519	1105	285
51	5550	1110	280
51	5569	1115	275
51	5600	1120	270
51	5717	1145	285
51	5748	1150	280
51	5909	1180	300
51	5929	1185	295
51	5963	1190	290
51	6137	1225	315
51	6166	1230	310
51	6321	1260	330
51	6335	1265	325
51	6361	1270	320
51	6374	1275	315
51	6401	1280	310
51	6424	1285	305
51	6463	1290	300
51	6778	1350	350
51	6797	1355	345
51	6828	1360	340
51	7001	1395	365
51	7032	1400	360
51	7051	1405	355
51	7074	1410	350
51	7089	1415	345
51	7116	1420	340
51	7134	1425	335
51	7164	1430	330
51	7188	1435	325
51	7219	1440	320
51	7241	1445	315
51	7266	1450	310
51	7281	1455	305
51	7626	1525	365
51	7652	1530	360
51	7668	1535	355
51	7700	1540	350
51	7721	1545	345
51	7753	1550	340
51	7778	1555	335
51	7812	1560	330
51	7837	1565	325
51	7873	1570	320
51	8042	1605	345
51	8071	1610	340
51	8088	1615	335
51	8118	1620	330
51	8137	1625	325
51	8169	1630	320
51	8193	1635	315
51	8221	1640	310
51	8237	1645	305
51	8341	1665	315
51	8372	1670	310
51	8398	1675	305
51	8530	1700	320
51	8543	1705	315
51	8570	1710	310
51	8589	1715	305
51	8618	1720	300
51	8938	1785	355
51	9059	1815	375
51	9091	1820	370
51	9110	1825	365
51	9137	1830	360
51	9283	1860	380
51	9303	1865	375
51	9331	1870	370
51	9350	1875	365
51	9493	1905	385
51	9518	1910	380
51	9784	1965	425
51	9809	1970	420
51	9825	1975	415
51	9851	1980	410
51	9869	1985	405
51	10164	2045	455
51	10193	2050	450
51	10209	2055	445
51	10240	2060	440
51	10263	2065	435
51	10289	2070	430
51	10729	2150	500
51	10899	2185	525
51	10933	2190	520
51	10956	2195	515
51	10989	2200	510
51	11005	2205	505
51	11172	2235	525
51	11488	2300	580
51	11510	2305	575
51	11543	2310	570
51	11564	2315	565
51	11814	2370	610
51	11836	2375	605
51	11869	2380	600
51	11892	2385	595
51	11923	2390	590
51	11943	2395	585
51	11975	2400	580
51	11995	2405	575
51	12025	2410	570
51	12042	2415	565
51	12068	2420	560
51	12089	2425	555
51	12270	2460	580
51	12293	2465	575
51	12326	2470	570
51	12352	2475	565
51	12472	2495	575
51	12503	2500	570
51	12521	2505	565
51	12553	2510	560
51	12577	2515	555
51	12898	2580	610
51	12915	2585	605
51	13006	2605	615
51	13029	2610	610
51	13043	2615	605
51	13071	2620	600
51	13088	2625	595
51	13170	2645	605
51	13198	2650	600
51	13219	2655	595
51	13253	2660	590
51	13272	2665	585
51	13303	2670	580
51	13325	2675	575
51	13359	2680	570
51	13381	2685	565
51	13519	2710	580
51	13538	2715	575
51	13564	2720	570
51	13582	2725	565
51	13609	2730	560
51	13624	2735	555
51	13652	2740	550
51	13671	2745	545
51	13701	2750	540
51	13719	2755	535
51	13749	2760	530
51	13767	2765	525
51	13797	2770	520
51	14505	2905	645
51	14534	2910	640
51	14555	2915	635
51	14588	2920	630
51	14694	2940	640
51	14713	2945	635
51	14744	2950	630
51	14765	2955	625
51	14793	2960	620
51	14812	2965	615
51	14846	2970	610
51	14875	2975	605
51	14907	2980	600
51	15031	3005	615
51	15066	3010	610
51	15092	3015	605
51	15229	3045	625
51	15257	3050	620
51	15274	3055	615
51	15438	3085	635
51	15464	3090	630
51	15485	3095	625
51	15515	3100	620
51	15668	3130	640
51	15690	3135	635
51	15724	3140	630
51	15749	3145	625
51	15785	3150	620
51	16034	3200	660
51	16052	3205	655
51	16083	3210	650
51	16216	3235	665
51	16326	3255	675
51	16351	3260	670
51	16371	3265	665
51	16404	3270	660
51	16429	3275	655
51	16465	3280	650
51	16488	3285	645
51	16516	3290	640
51	16535	3295	635
51	16565	3300	630
51	16690	3325	645
51	16721	3330	640
51	16742	3335	635
51	16773	3340	630
51	16794	3345	625
51	16822	3350	620
51	16841	3355	615
51	16871	3360	610
51	16891	3365	605
51	16926	3370	600
51	16954	3375	595
51	17354	3455	665
51	17386	3460	660
51	17539	3490	680
51	17559	3495	675
51	17592	3500	670
51	17616	3505	665
51	17648	3510	660
51	17671	3515	655
51	17701	3520	650
51	17723	3525	645
51	17757	3530	640
51	17949	3565	665
51	17976	3570	660
51	18118	3595	675
52	444	95	1
52	473	100	1
52	496	105	1
52	520	110	1
52	539	115	1
52	570	120	1
52	593	125	1
52	625	130	1
52	645	135	1
52	675	140	1
52	849	175	1
52	955	200	1
52	973	205	1
52	999	210	1
52	1017	215	1
52	1046	220	1
52	1069	225	1
52	1192	250	1
52	1304	270	1
52	1408	290	1
52	1429	295	1
52	1525	315	1
52	1551	320	1
52	1568	325	1
52	1599	330	1
52	1726	355	1
52	1747	360	1
52	1765	365	1
52	1886	385	1
52	1918	390	1
52	1939	395	1
52	1972	400	1
52	1994	405	1
52	2023	410	1
52	2039	415	1
52	2069	420	1
52	2091	425	1
52	2125	430	1
52	2144	435	1
52	2250	455	1
52	2698	540	1
52	2719	545	1
52	2753	550	1
52	3088	620	1
52	3189	640	1
52	3204	645	1
52	3232	650	1
52	3372	675	1
52	3401	680	1
52	3423	685	1
52	3596	720	1
52	3619	725	1
52	3651	730	1
52	3672	735	1
52	3700	740	1
52	3884	775	1
52	4072	815	1
52	4101	820	1
52	4232	845	1
52	4260	850	1
52	4400	880	1
52	4423	885	1
52	4456	890	1
52	4477	895	1
52	4506	900	1
52	4525	905	1
52	4555	910	1
52	4573	915	1
52	4601	920	1
52	4622	925	1
52	4922	985	1
52	4949	990	1
52	4966	995	1
52	4998	1000	1
52	5020	1005	1
52	5051	1010	1
52	5072	1015	1
52	5195	1040	1
52	5218	1045	1
52	5407	1080	1
52	5496	1100	1
52	5519	1105	1
52	5550	1110	1
52	5569	1115	1
52	5600	1120	1
52	5717	1145	1
52	5748	1150	1
52	5909	1180	1
52	5929	1185	1
52	5963	1190	1
52	6137	1225	1
52	6166	1230	1
52	6321	1260	1
52	6335	1265	1
52	6361	1270	1
52	6374	1275	1
52	6401	1280	1
52	6424	1285	1
52	6463	1290	1
52	6778	1350	1
52	6797	1355	1
52	6828	1360	1
52	7001	1395	1
52	7032	1400	1
52	7051	1405	1
52	7074	1410	1
52	7089	1415	1
52	7116	1420	1
52	7134	1425	1
52	7164	1430	1
52	7188	1435	1
52	7219	1440	1
52	7241	1445	1
52	7266	1450	1
52	7281	1455	1
52	7626	1525	1
52	7652	1530	1
52	7668	1535	1
52	7700	1540	1
52	7721	1545	1
52	7753	1550	1
52	7778	1555	1
52	7812	1560	1
52	7837	1565	1
52	7873	1570	1
52	8042	1605	1
52	8071	1610	1
52	8088	1615	1
52	8118	1620	1
52	8137	1625	1
52	8169	1630	1
52	8193	1635	1
52	8221	1640	1
52	8237	1645	1
52	8341	1665	1
52	8372	1670	1
52	8398	1675	1
52	8530	1700	1
52	8543	1705	1
52	8570	1710	1
52	8589	1715	1
52	8618	1720	1
52	8938	1785	1
52	9059	1815	1
52	9091	1820	1
52	9110	1825	1
52	9137	1830	1
52	9283	1860	1
52	9303	1865	1
52	9331	1870	1
52	9350	1875	1
52	9493	1905	1
52	9518	1910	1
52	9784	1965	1
52	9809	1970	1
52	9825	1975	1
52	9851	1980	1
52	9869	1985	1
52	10164	2045	1
52	10193	2050	1
52	10209	2055	1
52	10240	2060	1
52	10263	2065	1
52	10289	2070	1
52	10729	2150	1
52	10899	2185	1
52	10933	2190	1
52	10956	2195	1
52	10989	2200	1
52	11005	2205	1
52	11172	2235	1
52	11488	2300	1
52	11510	2305	1
52	11543	2310	1
52	11564	2315	1
52	11814	2370	1
52	11836	2375	1
52	11869	2380	1
52	11892	2385	1
52	11923	2390	1
52	11943	2395	1
52	11975	2400	1
52	11995	2405	1
52	12025	2410	1
52	12042	2415	1
52	12068	2420	1
52	12089	2425	1
52	12270	2460	1
52	12293	2465	1
52	12326	2470	1
52	12352	2475	1
52	12472	2495	1
52	12503	2500	1
52	12521	2505	1
52	12553	2510	1
52	12577	2515	1
52	12898	2580	1
52	12915	2585	1
52	13006	2605	1
52	13029	2610	1
52	13043	2615	1
52	13071	2620	1
52	13088	2625	1
52	13170	2645	1
52	13198	2650	1
52	13219	2655	1
52	13253	2660	1
52	13272	2665	1
52	13303	2670	1
52	13325	2675	1
52	13359	2680	1
52	13381	2685	1
52	13519	2710	1
52	13538	2715	1
52	13564	2720	1
52	13582	2725	1
52	13609	2730	1
52	13624	2735	1
52	13652	2740	1
52	13671	2745	1
52	13701	2750	1
52	13719	2755	1
52	13749	2760	1
52	13767	2765	1
52	13797	2770	1
52	14505	2905	1
52	14534	2910	1
52	14555	2915	1
52	14588	2920	1
52	14694	2940	1
52	14713	2945	1
52	14744	2950	1
52	14765	2955	1
52	14793	2960	1
52	14812	2965	1
52	14846	2970	1
52	14875	2975	1
52	14907	2980	1
52	15031	3005	1
52	15066	3010	1
52	15092	3015	1
52	15229	3045	1
52	15257	3050	1
52	15274	3055	1
52	15438	3085	1
52	15464	3090	1
52	15485	3095	1
52	15515	3100	1
52	15668	3130	1
52	15690	3135	1
52	15724	3140	1
52	15749	3145	1
52	15785	3150	1
52	16034	3200	1
52	16052	3205	1
52	16083	3210	1
52	16216	3235	1
52	16326	3255	1
52	16351	3260	1
52	16371	3265	1
52	16404	3270	1
52	16429	3275	1
52	16465	3280	1
52	16488	3285	1
52	16516	3290	1
52	16535	3295	1
52	16565	3300	1
52	16690	3325	1
52	16721	3330	1
52	16742	3335	1
52	16773	3340	1
52	16794	3345	1
52	16822	3350	1
52	16841	3355	1
52	16871	3360	1
52	16891	3365	1
52	16926	3370	1
52	16954	3375	1
52	17354	3455	1
52	17386	3460	1
52	17539	3490	1
52	17559	3495	1
52	17592	3500	1
52	17616	3505	1
52	17648	3510	1
52	17671	3515	1
52	17701	3520	1
52	17723	3525	1
52	17757	3530	1
52	17949	3565	1
52	17976	3570	1
52	18118	3595	1

