version 2
run ContinuityTest2a-0-20210120-11:12:51-5866
attr configname ContinuityTest2a
attr datetime 20210120-11:12:51
attr experiment ContinuityTest2a
attr inifile omnetpp.ini
attr iterationvars ""
attr iterationvarsf ""
attr measurement ""
attr network slottedNetwork
attr processid 5866
attr repetition 0
attr replication #0
attr resultdir results
attr runnumber 0
attr seedset 0
param **.numTransmitters 8
param **.numChannels 18
param **.sendProbability 1
param **.expMean 10s
param **.timeSlotSize 5s
param **.thresh 20s
param **.deterministicInterarrivalTime true
param **.numTransmitters 1
param **.numChannels 1
param **.sendProbability 1
param **.expMean 5s
param **.timeSlotSize 5s
param **.thresh 20s
param **.deterministicInterarrivalTime false

vector 0 slottedNetwork.ch throughput:vector ETV
attr source throughputSignal
vector 1 slottedNetwork.transmitters[0] numPacketOnBuffer:vector ETV
attr source numPacketOnBufferSignal
vector 2 slottedNetwork.transmitters[1] numPacketOnBuffer:vector ETV
attr source numPacketOnBufferSignal
vector 3 slottedNetwork.transmitters[2] numPacketOnBuffer:vector ETV
attr source numPacketOnBufferSignal
vector 4 slottedNetwork.transmitters[3] numPacketOnBuffer:vector ETV
attr source numPacketOnBufferSignal
vector 5 slottedNetwork.transmitters[4] numPacketOnBuffer:vector ETV
attr source numPacketOnBufferSignal
vector 6 slottedNetwork.transmitters[5] numPacketOnBuffer:vector ETV
attr source numPacketOnBufferSignal
vector 7 slottedNetwork.transmitters[6] numPacketOnBuffer:vector ETV
attr source numPacketOnBufferSignal
vector 8 slottedNetwork.transmitters[7] numPacketOnBuffer:vector ETV
attr source numPacketOnBufferSignal
vector 9 slottedNetwork.transmitters[0] numPacketCreated:vector ETV
attr source numPacketCreatedSignal
vector 10 slottedNetwork.transmitters[1] numPacketCreated:vector ETV
attr source numPacketCreatedSignal
vector 11 slottedNetwork.transmitters[2] numPacketCreated:vector ETV
attr source numPacketCreatedSignal
vector 12 slottedNetwork.transmitters[3] numPacketCreated:vector ETV
attr source numPacketCreatedSignal
vector 13 slottedNetwork.transmitters[4] numPacketCreated:vector ETV
attr source numPacketCreatedSignal
vector 14 slottedNetwork.transmitters[5] numPacketCreated:vector ETV
attr source numPacketCreatedSignal
vector 15 slottedNetwork.transmitters[6] numPacketCreated:vector ETV
attr source numPacketCreatedSignal
vector 16 slottedNetwork.transmitters[7] numPacketCreated:vector ETV
attr source numPacketCreatedSignal
vector 17 slottedNetwork.ch collisions:vector ETV
attr source collisionSignal
vector 18 slottedNetwork.receivers[1] numPacketReceived:vector ETV
attr source numPacketReceivedSignal
vector 19 slottedNetwork.receivers[1] responseTime:vector ETV
attr source responseTimeSignal
vector 20 slottedNetwork.receivers[1] threshold:vector ETV
attr source thresholdSignal
vector 21 slottedNetwork.receivers[2] numPacketReceived:vector ETV
attr source numPacketReceivedSignal
vector 22 slottedNetwork.receivers[2] responseTime:vector ETV
attr source responseTimeSignal
vector 23 slottedNetwork.receivers[2] threshold:vector ETV
attr source thresholdSignal
vector 24 slottedNetwork.receivers[7] numPacketReceived:vector ETV
attr source numPacketReceivedSignal
vector 25 slottedNetwork.receivers[7] responseTime:vector ETV
attr source responseTimeSignal
vector 26 slottedNetwork.receivers[7] threshold:vector ETV
attr source thresholdSignal
vector 27 slottedNetwork.receivers[4] numPacketReceived:vector ETV
attr source numPacketReceivedSignal
vector 28 slottedNetwork.receivers[4] responseTime:vector ETV
attr source responseTimeSignal
vector 29 slottedNetwork.receivers[4] threshold:vector ETV
attr source thresholdSignal
vector 30 slottedNetwork.receivers[5] numPacketReceived:vector ETV
attr source numPacketReceivedSignal
vector 31 slottedNetwork.receivers[5] responseTime:vector ETV
attr source responseTimeSignal
vector 32 slottedNetwork.receivers[5] threshold:vector ETV
attr source thresholdSignal
vector 33 slottedNetwork.receivers[0] numPacketReceived:vector ETV
attr source numPacketReceivedSignal
vector 34 slottedNetwork.receivers[0] responseTime:vector ETV
attr source responseTimeSignal
vector 35 slottedNetwork.receivers[0] threshold:vector ETV
attr source thresholdSignal
vector 36 slottedNetwork.receivers[3] numPacketReceived:vector ETV
attr source numPacketReceivedSignal
vector 37 slottedNetwork.receivers[3] responseTime:vector ETV
attr source responseTimeSignal
vector 38 slottedNetwork.receivers[3] threshold:vector ETV
attr source thresholdSignal
vector 39 slottedNetwork.receivers[6] numPacketReceived:vector ETV
attr source numPacketReceivedSignal
vector 40 slottedNetwork.receivers[6] responseTime:vector ETV
attr source responseTimeSignal
vector 41 slottedNetwork.receivers[6] threshold:vector ETV
attr source thresholdSignal
0	1	5	0
0	18	10	0
0	35	15	3
0	55	20	0
0	67	25	3
0	89	30	2
0	106	35	6
0	132	40	3
0	152	45	8
0	180	50	3
0	200	55	6
0	225	60	2
0	242	65	4
0	264	70	1
0	279	75	3
0	300	80	1
0	315	85	3
0	339	90	4
0	358	95	6
0	385	100	2
0	401	105	5
0	425	110	2
0	441	115	5
0	466	120	3
0	485	125	7
0	512	130	3
0	532	135	5
0	557	140	3
0	574	145	5
0	600	150	2
0	616	155	5
0	642	160	4
0	662	165	5
0	686	170	2
0	703	175	0
0	720	180	0
0	730	185	1
0	752	190	4
0	769	195	2
0	792	200	4
0	810	205	3
0	834	210	4
0	852	215	5
0	880	220	6
0	902	225	3
0	926	230	4
0	943	235	2
0	964	240	2
0	979	245	2
0	1000	250	2
0	1015	255	4
0	1042	260	6
0	1064	265	5
0	1090	270	2
0	1104	275	3
0	1126	280	2
0	1142	285	5
0	1169	290	1
0	1182	295	3
0	1204	300	2
0	1219	305	4
0	1243	310	3
0	1260	315	5
0	1286	320	2
0	1301	325	2
0	1322	330	2
0	1337	335	4
0	1364	340	6
0	1386	345	5
0	1414	350	4
0	1431	355	4
0	1457	360	3
0	1473	365	4
0	1498	370	4
0	1516	375	5
0	1541	380	3
0	1559	385	6
0	1587	390	5
0	1608	395	5
0	1633	400	3
0	1650	405	3
0	1672	410	2
0	1688	415	3
0	1709	420	1
0	1722	425	3
0	1744	430	2
0	1760	435	5
0	1785	440	3
0	1803	445	4
0	1826	450	2
0	1841	455	1
0	1862	460	3
0	1879	465	3
0	1903	470	4
0	1921	475	5
0	1949	480	4
0	1968	485	6
0	1997	490	4
0	2015	495	5
0	2042	500	5
0	2062	505	4
0	2088	510	3
0	2104	515	2
0	2125	520	2
0	2139	525	3
0	2162	530	3
0	2178	535	4
0	2204	540	5
0	2225	545	5
0	2252	550	3
0	2267	555	3
0	2292	560	3
0	2308	565	2
0	2330	570	3
0	2345	575	3
0	2369	580	2
0	2383	585	3
0	2406	590	3
0	2424	595	4
0	2449	600	2
0	2463	605	1
0	2483	610	2
0	2496	615	2
0	2518	620	1
0	2529	625	1
0	2551	630	4
0	2570	635	6
0	2600	640	7
0	2623	645	3
0	2646	650	3
0	2662	655	4
0	2687	660	2
0	2702	665	4
0	2727	670	4
0	2747	675	5
0	2774	680	3
0	2790	685	4
0	2816	690	5
0	2835	695	5
0	2863	700	4
0	2881	705	3
0	2905	710	2
0	2918	715	2
0	2939	720	2
0	2953	725	3
0	2977	730	4
0	2995	735	5
0	3022	740	3
0	3039	745	3
0	3060	750	1
0	3073	755	3
0	3094	760	1
0	3108	765	4
0	3133	770	4
0	3152	775	6
0	3179	780	4
0	3198	785	4
0	3222	790	3
0	3239	795	3
0	3263	800	2
0	3277	805	3
0	3299	810	2
0	3314	815	4
0	3340	820	5
0	3362	825	5
0	3388	830	2
0	3402	835	3
0	3425	840	3
0	3443	845	4
0	3469	850	5
0	3489	855	6
0	3518	860	6
0	3540	865	5
0	3568	870	6
0	3589	875	4
0	3615	880	5
0	3635	885	6
0	3664	890	6
0	3685	895	4
0	3712	900	4
0	3729	905	4
0	3755	910	3
0	3770	915	1
0	3789	920	1
0	3802	925	3
0	3827	930	5
0	3847	935	6
0	3876	940	4
0	3895	945	2
0	3916	950	2
0	3930	955	3
0	3954	960	2
0	3967	965	2
0	3990	970	4
0	4008	975	3
0	4032	980	4
0	4049	985	4
0	4076	990	2
0	4090	995	1
0	4110	1000	2
0	4126	1005	3
0	4149	1010	3
0	4166	1015	1
0	4186	1020	2
0	4199	1025	2
0	4221	1030	3
0	4239	1035	4
0	4265	1040	5
0	4285	1045	6
0	4314	1050	4
0	4331	1055	4
0	4357	1060	5
0	4378	1065	2
0	4400	1070	3
0	4415	1075	3
0	4440	1080	5
0	4461	1085	2
0	4483	1090	3
0	4498	1095	3
0	4522	1100	2
0	4536	1105	3
0	4561	1110	3
0	4578	1115	5
0	4605	1120	3
0	4620	1125	3
0	4643	1130	3
0	4660	1135	3
0	4684	1140	4
0	4703	1145	6
0	4733	1150	3
0	4748	1155	3
0	4771	1160	3
0	4786	1165	1
0	4805	1170	1
0	4820	1175	3
0	4843	1180	3
0	4858	1185	3
0	4882	1190	2
0	4898	1195	3
0	4921	1200	3
0	4936	1205	3
0	4960	1210	2
0	4974	1215	3
0	5000	1220	1
0	5012	1225	2
0	5033	1230	2
0	5047	1235	3
0	5072	1240	3
0	5088	1245	4
0	5113	1250	4
0	5131	1255	3
0	5155	1260	2
0	5169	1265	3
0	5193	1270	2
0	5207	1275	3
0	5230	1280	3
0	5246	1285	4
0	5272	1290	5
0	5291	1295	5
0	5320	1300	7
0	5343	1305	3
0	5366	1310	3
0	5381	1315	1
0	5401	1320	2
0	5416	1325	4
0	5442	1330	5
0	5463	1335	5
0	5490	1340	5
0	5509	1345	3
0	5532	1350	3
0	5548	1355	4
0	5573	1360	4
0	5592	1365	3
0	5616	1370	4
0	5633	1375	0
0	5652	1380	2
0	5666	1385	1
0	5686	1390	2
0	5700	1395	3
0	5724	1400	4
0	5742	1405	3
0	5765	1410	3
0	5781	1415	4
0	5807	1420	3
0	5822	1425	3
0	5845	1430	3
0	5863	1435	6
0	5893	1440	7
0	5917	1445	4
0	5942	1450	2
0	5955	1455	2
0	5977	1460	3
0	5995	1465	4
0	6021	1470	5
0	6041	1475	4
0	6067	1480	5
0	6086	1485	5
0	6113	1490	3
0	6129	1495	4
0	6154	1500	4
0	6173	1505	6
0	6204	1510	6
0	6225	1515	6
0	6254	1520	6
0	6275	1525	2
0	6297	1530	3
0	6312	1535	3
0	6337	1540	3
0	6353	1545	4
0	6379	1550	5
0	6400	1555	2
0	6421	1560	2
0	6434	1565	2
0	6456	1570	1
0	6469	1575	3
0	6494	1580	3
0	6510	1585	4
0	6535	1590	2
0	6550	1595	2
0	6571	1600	2
0	6584	1605	2
0	6605	1610	2
0	6619	1615	3
0	6645	1620	4
0	6663	1625	3
0	6686	1630	3
0	6702	1635	4
0	6730	1640	5
0	6749	1645	3
0	6773	1650	2
0	6787	1655	3
0	6811	1660	4
0	6829	1665	5
0	6859	1670	6
0	6880	1675	4
0	6905	1680	4
0	6922	1685	4
0	6948	1690	5
0	6968	1695	4
0	6994	1700	3
0	7010	1705	4
0	7035	1710	2
0	7049	1715	3
0	7073	1720	4
0	7092	1725	2
0	7113	1730	2
0	7126	1735	2
0	7151	1740	6
0	7173	1745	5
0	7201	1750	4
0	7218	1755	4
0	7243	1760	4
0	7263	1765	5
0	7290	1770	3
0	7306	1775	4
0	7332	1780	5
0	7351	1785	3
0	7375	1790	4
0	7394	1795	4
0	7421	1800	6
0	7442	1805	3
0	7465	1810	3
0	7480	1815	3
0	7503	1820	1
0	7515	1825	0
0	7533	1830	1
0	7546	1835	1
0	7566	1840	2
0	7579	1845	2
0	7603	1850	5
0	7623	1855	2
0	7644	1860	2
0	7657	1865	2
0	7678	1870	2
0	7692	1875	3
0	7716	1880	4
0	7736	1885	3
0	7759	1890	3
0	7774	1895	3
0	7798	1900	2
0	7811	1905	2
0	7832	1910	2
0	7849	1915	6
0	7878	1920	4
0	7896	1925	1
0	7914	1930	0
0	7924	1935	1
0	7944	1940	2
0	7959	1945	4
0	7986	1950	4
0	8005	1955	6
0	8033	1960	5
0	8053	1965	4
0	8078	1970	2
0	8092	1975	3
0	8115	1980	3
0	8131	1985	4
0	8156	1990	2
0	8170	1995	1
0	8192	2000	4
0	8209	2005	4
0	8236	2010	6
0	8257	2015	4
0	8284	2020	4
0	8301	2025	4
0	8326	2030	2
0	8340	2035	3
0	8365	2040	5
0	8385	2045	4
0	8411	2050	2
0	8425	2055	3
0	8450	2060	3
0	8467	2065	3
0	8490	2070	3
0	8505	2075	3
0	8529	2080	4
0	8547	2085	3
0	8570	2090	3
0	8587	2095	3
0	8611	2100	2
0	8624	2105	2
0	8647	2110	4
0	8665	2115	3
0	8690	2120	3
0	8706	2125	2
0	8727	2130	2
0	8742	2135	2
0	8765	2140	4
0	8783	2145	5
0	8811	2150	4
0	8828	2155	4
0	8854	2160	3
0	8869	2165	3
0	8894	2170	5
0	8915	2175	3
0	8938	2180	3
0	8953	2185	3
0	8977	2190	2
0	8991	2195	3
0	9014	2200	3
0	9033	2205	7
0	9064	2210	3
0	9079	2215	3
0	9102	2220	3
0	9118	2225	4
0	9143	2230	4
0	9161	2235	3
0	9187	2240	6
0	9208	2245	2
0	9230	2250	3
0	9245	2255	3
0	9268	2260	3
0	9284	2265	4
0	9311	2270	6
0	9333	2275	5
0	9360	2280	3
0	9376	2285	4
0	9402	2290	5
0	9423	2295	7
0	9454	2300	5
0	9474	2305	4
0	9499	2310	4
0	9517	2315	5
0	9544	2320	3
0	9560	2325	4
0	9586	2330	5
0	9606	2335	6
0	9635	2340	6
0	9656	2345	6
0	9686	2350	3
0	9702	2355	4
0	9727	2360	2
0	9740	2365	2
0	9763	2370	4
0	9782	2375	6
0	9813	2380	4
0	9830	2385	4
0	9855	2390	4
0	9872	2395	4
0	9899	2400	4
0	9918	2405	4
0	9942	2410	3
0	9958	2415	4
0	9984	2420	5
0	10005	2425	2
0	10025	2430	1
0	10037	2435	2
0	10058	2440	2
0	10073	2445	4
0	10099	2450	5
0	10120	2455	5
0	10147	2460	5
0	10167	2465	6
0	10196	2470	6
0	10218	2475	3
0	10240	2480	2
0	10255	2485	4
0	10280	2490	4
0	10298	2495	3
0	10322	2500	2
0	10337	2505	4
0	10362	2510	4
0	10380	2515	3
0	10402	2520	2
0	10417	2525	4
0	10442	2530	4
0	10461	2535	4
0	10486	2540	4
0	10505	2545	6
0	10533	2550	5
0	10554	2555	5
0	10579	2560	3
0	10597	2565	2
0	10617	2570	1
0	10631	2575	4
0	10655	2580	3
0	10672	2585	3
0	10696	2590	2
0	10711	2595	4
0	10736	2600	4
0	10756	2605	4
0	10781	2610	4
0	10799	2615	5
0	10825	2620	4
0	10844	2625	6
0	10872	2630	5
0	10894	2635	6
0	10922	2640	3
0	10938	2645	4
0	10962	2650	3
0	10979	2655	5
0	11005	2660	4
0	11025	2665	7
0	11055	2670	6
0	11078	2675	6
0	11106	2680	5
0	11126	2685	6
0	11155	2690	4
0	11173	2695	5
0	11200	2700	3
0	11217	2705	3
0	11239	2710	2
0	11254	2715	2
0	11274	2720	1
0	11286	2725	2
0	11310	2730	3
0	11327	2735	5
0	11353	2740	2
0	11368	2745	4
0	11392	2750	3
0	11409	2755	2
0	11429	2760	1
0	11443	2765	4
0	11469	2770	1
0	11481	2775	0
0	11498	2780	0
0	11509	2785	0
0	11527	2790	1
0	11539	2795	2
0	11561	2800	3
0	11578	2805	5
0	11607	2810	3
0	11622	2815	1
0	11641	2820	1
0	11653	2825	2
0	11675	2830	3
0	11692	2835	5
0	11719	2840	5
0	11738	2845	5
0	11766	2850	4
0	11783	2855	2
0	11804	2860	2
0	11817	2865	2
0	11840	2870	4
0	11860	2875	5
0	11885	2880	3
0	11902	2885	5
0	11927	2890	3
0	11945	2895	2
0	11968	2900	4
0	11985	2905	2
0	12008	2910	4
0	12025	2915	2
0	12048	2920	4
0	12066	2925	3
0	12090	2930	4
0	12109	2935	4
0	12135	2940	3
0	12150	2945	3
0	12174	2950	4
0	12192	2955	5
0	12221	2960	7
0	12245	2965	5
0	12272	2970	5
0	12291	2975	3
0	12314	2980	3
0	12331	2985	5
0	12358	2990	3
0	12375	2995	3
0	12399	3000	4
0	12417	3005	3
0	12441	3010	4
0	12459	3015	5
0	12487	3020	6
0	12508	3025	4
0	12533	3030	4
0	12551	3035	3
0	12577	3040	4
0	12594	3045	4
0	12619	3050	4
0	12636	3055	4
0	12664	3060	7
0	12688	3065	4
0	12713	3070	4
0	12730	3075	4
0	12758	3080	7
0	12782	3085	4
0	12807	3090	4
0	12824	3095	4
0	12848	3100	3
0	12865	3105	5
0	12893	3110	6
0	12915	3115	5
0	12941	3120	4
0	12959	3125	5
0	12985	3130	4
0	13004	3135	4
0	13029	3140	4
0	13048	3145	6
0	13077	3150	2
0	13091	3155	1
0	13110	3160	1
0	13122	3165	2
0	13143	3170	2
0	13156	3175	2
0	13181	3180	4
0	13198	3185	4
0	13224	3190	5
0	13244	3195	6
0	13273	3200	4
0	13290	3205	4
0	13315	3210	4
0	13333	3215	1
0	13352	3220	1
0	13365	3225	3
0	13390	3230	5
0	13409	3235	5
0	13438	3240	7
0	13461	3245	5
0	13488	3250	5
0	13508	3255	4
0	13533	3260	4
0	13550	3265	4
0	13576	3270	5
0	13597	3275	4
0	13621	3280	3
0	13637	3285	2
0	13658	3290	2
0	13673	3295	4
0	13699	3300	5
0	13718	3305	5
0	13746	3310	6
0	13768	3315	7
0	13799	3320	7
0	13822	3325	5
0	13849	3330	5
0	13868	3335	3
0	13890	3340	2
0	13904	3345	3
0	13928	3350	4
0	13947	3355	6
0	13976	3360	6
0	13998	3365	5
0	14024	3370	2
0	14038	3375	1
0	14058	3380	2
0	14071	3385	2
0	14093	3390	3
0	14108	3395	3
0	14133	3400	3
0	14150	3405	5
0	14178	3410	6
0	14200	3415	3
0	14223	3420	3
0	14238	3425	3
0	14262	3430	4
0	14280	3435	5
0	14307	3440	3
0	14324	3445	3
0	14346	3450	2
0	14361	3455	4
0	14386	3460	4
0	14406	3465	7
0	14437	3470	7
0	14461	3475	6
0	14489	3480	3
0	14505	3485	4
0	14530	3490	4
0	14548	3495	5
0	14575	3500	1
0	14588	3505	3
0	14611	3510	3
0	14629	3515	4
0	14654	3520	4
0	14672	3525	5
0	14698	3530	2
0	14712	3535	3
0	14736	3540	4
0	14755	3545	2
0	14777	3550	3
0	14793	3555	4
0	14819	3560	3
0	14835	3565	4
0	14861	3570	3
0	14877	3575	4
0	14902	3580	4
0	14919	3585	2
0	14941	3590	3
0	14956	3595	1
0	14976	3600	2
1	2	5	0
1	10	10	1
1	19	10	1
1	36	15	1
1	47	20	2
1	56	20	2
1	74	25	2
1	81	30	3
1	94	30	3
1	111	35	2
1	124	40	3
1	137	40	2
1	157	45	1
1	172	50	2
1	181	50	1
1	201	55	1
1	217	60	2
1	230	60	2
1	253	65	2
1	256	70	3
1	267	70	3
1	281	75	2
1	292	80	3
1	301	80	2
1	316	85	1
1	331	90	2
1	340	90	1
1	359	95	0
1	377	100	1
1	392	100	1
1	406	105	0
1	417	110	1
1	430	110	1
1	446	115	0
1	458	120	1
1	473	120	1
1	492	125	0
1	504	130	1
1	519	130	1
1	539	135	1
1	549	140	2
1	564	140	2
1	585	145	2
1	592	150	3
1	605	150	2
1	619	155	1
1	634	160	2
1	645	160	1
1	664	165	0
1	678	170	1
1	691	170	1
1	706	175	1
1	712	180	2
1	721	180	2
1	733	185	2
1	744	190	3
1	761	190	3
1	776	195	3
1	784	200	4
1	801	200	4
1	817	205	3
1	826	210	4
1	839	210	3
1	857	215	2
1	872	220	3
1	883	220	2
1	904	225	2
1	918	230	3
1	935	230	3
1	950	235	3
1	956	240	4
1	969	240	4
1	986	245	4
1	992	250	5
1	1005	250	5
1	1020	255	4
1	1034	260	5
1	1047	260	4
1	1069	265	4
1	1082	270	5
1	1097	270	5
1	1111	275	5
1	1118	280	6
1	1131	280	6
1	1147	285	5
1	1161	290	6
1	1171	290	6
1	1189	295	6
1	1196	300	7
1	1209	300	7
1	1228	305	7
1	1235	310	8
1	1248	310	7
1	1265	315	6
1	1278	320	7
1	1290	320	7
1	1308	325	7
1	1314	330	8
1	1327	330	8
1	1342	335	7
1	1356	340	8
1	1369	340	7
1	1390	345	7
1	1406	350	8
1	1425	350	8
1	1440	355	8
1	1449	360	9
1	1463	360	8
1	1478	365	7
1	1490	370	8
1	1503	370	7
1	1521	375	6
1	1533	380	7
1	1544	380	6
1	1562	385	5
1	1579	390	6
1	1590	390	5
1	1611	395	5
1	1625	400	6
1	1640	400	6
1	1659	405	6
1	1664	410	7
1	1677	410	7
1	1692	415	7
1	1701	420	8
1	1712	420	8
1	1729	425	8
1	1736	430	9
1	1749	430	9
1	1771	435	9
1	1777	440	10
1	1792	440	10
1	1814	445	10
1	1818	450	11
1	1831	450	11
1	1847	455	11
1	1854	460	12
1	1865	460	11
1	1882	465	11
1	1895	470	12
1	1912	470	12
1	1932	475	12
1	1941	480	13
1	1958	480	12
1	1975	485	11
1	1989	490	12
1	2002	490	11
1	2018	495	10
1	2034	500	11
1	2045	500	10
1	2065	505	9
1	2080	510	10
1	2091	510	9
1	2106	515	8
1	2117	520	9
1	2126	520	8
1	2140	525	7
1	2154	530	8
1	2163	530	7
1	2179	535	6
1	2196	540	7
1	2205	540	6
1	2226	545	5
1	2244	550	6
1	2253	550	6
1	2274	555	6
1	2284	560	7
1	2301	560	7
1	2315	565	7
1	2322	570	8
1	2335	570	7
1	2350	575	6
1	2361	580	7
1	2374	580	7
1	2390	585	7
1	2398	590	8
1	2413	590	8
1	2435	595	8
1	2441	600	9
1	2454	600	8
1	2466	605	8
1	2475	610	9
1	2488	610	9
1	2501	615	9
1	2510	620	10
1	2523	620	10
1	2532	625	10
1	2543	630	11
1	2554	630	10
1	2573	635	9
1	2592	640	10
1	2603	640	9
1	2625	645	9
1	2638	650	10
1	2653	650	10
1	2671	655	10
1	2679	660	11
1	2694	660	11
1	2707	665	10
1	2719	670	11
1	2732	670	10
1	2752	675	9
1	2766	680	10
1	2778	680	10
1	2799	685	10
1	2808	690	11
1	2827	690	11
1	2846	695	11
1	2855	700	12
1	2874	700	12
1	2890	705	12
1	2897	710	13
1	2911	710	13
1	2923	715	13
1	2931	720	14
1	2944	720	14
1	2960	725	14
1	2969	730	15
1	2986	730	15
1	3006	735	15
1	3014	740	16
1	3029	740	16
1	3048	745	16
1	3052	750	17
1	3063	750	17
1	3080	755	17
1	3086	760	18
1	3097	760	18
1	3117	765	18
1	3125	770	19
1	3142	770	19
1	3165	775	19
1	3171	780	20
1	3188	780	20
1	3209	785	20
1	3214	790	21
1	3229	790	21
1	3248	795	21
1	3255	800	22
1	3270	800	22
1	3284	805	22
1	3291	810	23
1	3304	810	23
1	3319	815	22
1	3332	820	23
1	3345	820	22
1	3366	825	21
1	3380	830	22
1	3390	830	21
1	3403	835	20
1	3417	840	21
1	3426	840	20
1	3444	845	19
1	3461	850	20
1	3470	850	19
1	3490	855	18
1	3510	860	19
1	3519	860	18
1	3541	865	17
1	3560	870	18
1	3569	870	17
1	3590	875	16
1	3607	880	17
1	3616	880	16
1	3636	885	15
1	3656	890	16
1	3665	890	15
1	3686	895	15
1	3704	900	16
1	3723	900	16
1	3738	905	16
1	3747	910	17
1	3762	910	16
1	3774	915	16
1	3781	920	17
1	3792	920	17
1	3809	925	17
1	3819	930	18
1	3838	930	18
1	3860	935	18
1	3868	940	19
1	3887	940	19
1	3902	945	19
1	3908	950	20
1	3921	950	20
1	3937	955	20
1	3946	960	21
1	3961	960	21
1	3972	965	21
1	3982	970	22
1	3999	970	22
1	4017	975	22
1	4024	980	23
1	4039	980	22
1	4056	985	21
1	4068	990	22
1	4081	990	22
1	4095	995	22
1	4102	1000	23
1	4115	1000	23
1	4135	1005	23
1	4141	1010	24
1	4156	1010	24
1	4170	1015	24
1	4178	1020	25
1	4191	1020	25
1	4204	1025	25
1	4213	1030	26
1	4226	1030	25
1	4244	1035	24
1	4257	1040	25
1	4270	1040	24
1	4290	1045	23
1	4306	1050	24
1	4319	1050	23
1	4336	1055	22
1	4349	1060	23
1	4362	1060	22
1	4381	1065	21
1	4392	1070	22
1	4401	1070	21
1	4416	1075	20
1	4432	1080	21
1	4441	1080	20
1	4462	1085	20
1	4475	1090	21
1	4490	1090	21
1	4505	1095	21
1	4514	1100	22
1	4528	1100	22
1	4543	1105	22
1	4553	1110	23
1	4570	1110	23
1	4589	1115	23
1	4597	1120	24
1	4614	1120	24
1	4627	1125	24
1	4635	1130	25
1	4650	1130	25
1	4666	1135	24
1	4676	1140	25
1	4689	1140	24
1	4708	1145	23
1	4725	1150	24
1	4737	1150	24
1	4755	1155	24
1	4763	1160	25
1	4778	1160	25
1	4791	1165	25
1	4797	1170	26
1	4808	1170	26
1	4823	1175	26
1	4835	1180	27
1	4850	1180	27
1	4865	1185	27
1	4874	1190	28
1	4887	1190	27
1	4900	1195	26
1	4913	1200	27
1	4922	1200	26
1	4937	1205	25
1	4952	1210	26
1	4961	1210	25
1	4975	1215	24
1	4992	1220	25
1	5001	1220	25
1	5017	1225	25
1	5025	1230	26
1	5038	1230	26
1	5052	1235	25
1	5064	1240	26
1	5077	1240	26
1	5097	1245	26
1	5105	1250	27
1	5122	1250	27
1	5140	1255	27
1	5147	1260	28
1	5162	1260	28
1	5174	1265	27
1	5185	1270	28
1	5196	1270	27
1	5208	1275	26
1	5222	1280	27
1	5231	1280	26
1	5247	1285	25
1	5264	1290	26
1	5273	1290	25
1	5292	1295	24
1	5312	1300	25
1	5321	1300	24
1	5344	1305	24
1	5358	1310	25
1	5373	1310	25
1	5386	1315	25
1	5393	1320	26
1	5404	1320	25
1	5419	1325	24
1	5434	1330	25
1	5445	1330	24
1	5466	1335	24
1	5482	1340	25
1	5501	1340	25
1	5518	1345	25
1	5524	1350	26
1	5539	1350	26
1	5557	1355	26
1	5565	1360	27
1	5582	1360	27
1	5598	1365	26
1	5608	1370	27
1	5619	1370	26
1	5635	1375	26
1	5644	1380	27
1	5657	1380	27
1	5671	1385	27
1	5678	1390	28
1	5691	1390	28
1	5707	1395	28
1	5716	1400	29
1	5731	1400	28
1	5747	1405	27
1	5757	1410	28
1	5768	1410	27
1	5784	1415	26
1	5799	1420	27
1	5809	1420	26
1	5823	1425	25
1	5837	1430	26
1	5846	1430	25
1	5864	1435	24
1	5885	1440	25
1	5894	1440	24
1	5918	1445	24
1	5934	1450	25
1	5949	1450	25
1	5960	1455	25
1	5969	1460	26
1	5984	1460	26
1	6006	1465	26
1	6013	1470	27
1	6032	1470	27
1	6050	1475	26
1	6059	1480	27
1	6074	1480	26
1	6093	1485	25
1	6105	1490	26
1	6120	1490	26
1	6138	1495	26
1	6146	1500	27
1	6163	1500	27
1	6186	1505	27
1	6196	1510	28
1	6215	1510	27
1	6234	1515	26
1	6246	1520	27
1	6263	1520	26
1	6281	1525	26
1	6289	1530	27
1	6304	1530	27
1	6319	1535	27
1	6329	1540	28
1	6346	1540	28
1	6362	1545	28
1	6371	1550	29
1	6390	1550	29
1	6407	1555	28
1	6413	1560	29
1	6424	1560	28
1	6437	1565	27
1	6448	1570	28
1	6458	1570	27
1	6470	1575	26
1	6486	1580	27
1	6495	1580	26
1	6511	1585	25
1	6527	1590	26
1	6536	1590	25
1	6551	1595	24
1	6563	1600	25
1	6572	1600	24
1	6585	1605	23
1	6597	1610	24
1	6606	1610	23
1	6620	1615	22
1	6637	1620	23
1	6646	1620	22
1	6664	1625	21
1	6678	1630	22
1	6687	1630	21
1	6703	1635	20
1	6722	1640	21
1	6731	1640	20
1	6750	1645	19
1	6765	1650	20
1	6774	1650	19
1	6788	1655	18
1	6803	1660	19
1	6812	1660	18
1	6830	1665	17
1	6851	1670	18
1	6860	1670	18
1	6891	1675	18
1	6897	1680	19
1	6914	1680	19
1	6931	1685	19
1	6940	1690	20
1	6959	1690	20
1	6979	1695	20
1	6986	1700	21
1	7002	1700	21
1	7019	1705	21
1	7027	1710	22
1	7042	1710	22
1	7056	1715	22
1	7065	1720	23
1	7082	1720	23
1	7101	1725	23
1	7105	1730	24
1	7118	1730	24
1	7131	1735	24
1	7143	1740	25
1	7156	1740	24
1	7177	1745	23
1	7193	1750	24
1	7203	1750	23
1	7219	1755	22
1	7235	1760	23
1	7244	1760	22
1	7264	1765	21
1	7282	1770	22
1	7291	1770	22
1	7315	1775	22
1	7324	1780	23
1	7343	1780	23
1	7360	1785	23
1	7367	1790	24
1	7382	1790	23
1	7400	1795	22
1	7413	1800	23
1	7426	1800	22
1	7446	1805	22
1	7457	1810	23
1	7472	1810	23
1	7487	1815	23
1	7495	1820	24
1	7508	1820	24
1	7518	1825	24
1	7525	1830	25
1	7534	1830	24
1	7547	1835	23
1	7558	1840	24
1	7567	1840	23
1	7580	1845	22
1	7595	1850	23
1	7604	1850	22
1	7624	1855	21
1	7636	1860	22
1	7645	1860	21
1	7658	1865	20
1	7670	1870	21
1	7679	1870	20
1	7693	1875	19
1	7708	1880	20
1	7717	1880	19
1	7737	1885	18
1	7751	1890	19
1	7760	1890	18
1	7775	1895	17
1	7790	1900	18
1	7799	1900	18
1	7816	1905	18
1	7824	1910	19
1	7837	1910	19
1	7854	1915	18
1	7870	1920	19
1	7882	1920	18
1	7898	1925	18
1	7906	1930	19
1	7915	1930	19
1	7927	1935	19
1	7936	1940	20
1	7949	1940	20
1	7968	1945	20
1	7978	1950	21
1	7997	1950	21
1	8014	1955	20
1	8025	1960	21
1	8042	1960	20
1	8061	1965	19
1	8070	1970	20
1	8083	1970	19
1	8095	1975	18
1	8107	1980	19
1	8118	1980	18
1	8134	1985	17
1	8148	1990	18
1	8158	1990	17
1	8171	1995	17
1	8184	2000	18
1	8201	2000	18
1	8218	2005	18
1	8228	2010	19
1	8245	2010	18
1	8264	2015	17
1	8276	2020	18
1	8288	2020	17
1	8304	2025	16
1	8318	2030	17
1	8329	2030	17
1	8347	2035	17
1	8357	2040	18
1	8376	2040	18
1	8396	2045	18
1	8403	2050	19
1	8419	2050	19
1	8430	2055	18
1	8442	2060	19
1	8454	2060	18
1	8469	2065	17
1	8482	2070	18
1	8491	2070	17
1	8506	2075	16
1	8521	2080	17
1	8530	2080	16
1	8548	2085	16
1	8562	2090	17
1	8577	2090	17
1	8596	2095	17
1	8603	2100	18
1	8616	2100	17
1	8627	2105	16
1	8639	2110	17
1	8650	2110	16
1	8667	2115	16
1	8682	2120	17
1	8699	2120	17
1	8713	2125	17
1	8719	2130	18
1	8732	2130	18
1	8746	2135	18
1	8757	2140	19
1	8774	2140	19
1	8794	2145	19
1	8803	2150	20
1	8822	2150	20
1	8837	2155	20
1	8846	2160	21
1	8863	2160	21
1	8876	2165	21
1	8886	2170	22
1	8901	2170	21
1	8921	2175	20
1	8930	2180	21
1	8943	2180	20
1	8958	2185	19
1	8969	2190	20
1	8982	2190	20
1	8998	2195	20
1	9006	2200	21
1	9021	2200	21
1	9040	2205	20
1	9056	2210	21
1	9069	2210	20
1	9082	2215	19
1	9094	2220	20
1	9105	2220	19
1	9121	2225	18
1	9135	2230	19
1	9146	2230	18
1	9163	2235	17
1	9179	2240	18
1	9188	2240	17
1	9209	2245	17
1	9222	2250	18
1	9237	2250	18
1	9252	2255	18
1	9260	2260	19
1	9275	2260	19
1	9293	2265	19
1	9303	2270	20
1	9320	2270	19
1	9340	2275	18
1	9352	2280	19
1	9365	2280	19
1	9385	2285	19
1	9394	2290	20
1	9413	2290	20
1	9434	2295	19
1	9446	2300	20
1	9464	2300	19
1	9482	2305	18
1	9491	2310	19
1	9506	2310	18
1	9524	2315	17
1	9536	2320	18
1	9550	2320	17
1	9565	2325	16
1	9578	2330	17
1	9591	2330	16
1	9611	2335	15
1	9627	2340	16
1	9640	2340	15
1	9661	2345	14
1	9678	2350	15
1	9691	2350	15
1	9711	2355	15
1	9719	2360	16
1	9734	2360	16
1	9745	2365	16
1	9755	2370	17
1	9772	2370	17
1	9791	2375	16
1	9805	2380	17
1	9820	2380	17
1	9839	2385	17
1	9847	2390	18
1	9864	2390	18
1	9881	2395	18
1	9891	2400	19
1	9906	2400	18
1	9922	2405	17
1	9934	2410	18
1	9943	2410	17
1	9959	2415	16
1	9976	2420	17
1	9985	2420	16
1	10006	2425	16
1	10017	2430	17
1	10028	2430	17
1	10042	2435	17
1	10050	2440	18
1	10063	2440	18
1	10082	2445	18
1	10091	2450	19
1	10106	2450	18
1	10126	2455	17
1	10139	2460	18
1	10152	2460	17
1	10172	2465	16
1	10188	2470	17
1	10201	2470	16
1	10222	2475	16
1	10232	2480	17
1	10245	2480	17
1	10264	2485	17
1	10272	2490	18
1	10287	2490	17
1	10305	2495	17
1	10314	2500	18
1	10329	2500	18
1	10346	2505	18
1	10354	2510	19
1	10371	2510	19
1	10389	2515	19
1	10394	2520	20
1	10407	2520	20
1	10422	2525	19
1	10434	2530	20
1	10447	2530	19
1	10466	2535	19
1	10478	2540	20
1	10495	2540	20
1	10518	2545	20
1	10525	2550	21
1	10544	2550	21
1	10567	2555	21
1	10571	2560	22
1	10586	2560	22
1	10602	2565	22
1	10609	2570	23
1	10620	2570	23
1	10640	2575	23
1	10647	2580	24
1	10662	2580	24
1	10681	2585	24
1	10688	2590	25
1	10703	2590	25
1	10716	2595	24
1	10728	2600	25
1	10741	2600	24
1	10759	2605	24
1	10773	2610	25
1	10790	2610	25
1	10810	2615	25
1	10817	2620	26
1	10834	2620	26
1	10857	2625	26
1	10864	2630	27
1	10883	2630	27
1	10904	2635	26
1	10914	2640	27
1	10930	2640	27
1	10947	2645	27
1	10954	2650	28
1	10969	2650	28
1	10990	2655	28
1	10997	2660	29
1	11014	2660	29
1	11034	2665	28
1	11047	2670	29
1	11064	2670	28
1	11086	2675	27
1	11098	2680	28
1	11113	2680	27
1	11133	2685	26
1	11147	2690	27
1	11161	2690	26
1	11178	2695	25
1	11192	2700	26
1	11203	2700	25
1	11218	2705	24
1	11231	2710	25
1	11240	2710	24
1	11255	2715	23
1	11266	2720	24
1	11275	2720	23
1	11287	2725	22
1	11302	2730	23
1	11311	2730	23
1	11338	2735	23
1	11345	2740	24
1	11360	2740	24
1	11377	2745	24
1	11384	2750	25
1	11399	2750	25
1	11414	2755	25
1	11421	2760	26
1	11432	2760	26
1	11452	2765	26
1	11461	2770	27
1	11474	2770	27
1	11484	2775	27
1	11490	2780	28
1	11499	2780	28
1	11512	2785	28
1	11519	2790	29
1	11530	2790	29
1	11544	2795	29
1	11553	2800	30
1	11568	2800	30
1	11589	2805	30
1	11599	2810	31
1	11618	2810	31
1	11627	2815	31
1	11633	2820	32
1	11644	2820	32
1	11658	2825	32
1	11667	2830	33
1	11682	2830	33
1	11703	2835	33
1	11711	2840	34
1	11730	2840	34
1	11749	2845	34
1	11758	2850	35
1	11775	2850	34
1	11789	2855	34
1	11796	2860	35
1	11809	2860	35
1	11822	2865	35
1	11832	2870	36
1	11849	2870	36
1	11867	2875	35
1	11877	2880	36
1	11888	2880	35
1	11905	2885	34
1	11919	2890	35
1	11930	2890	34
1	11948	2895	34
1	11960	2900	35
1	11977	2900	35
1	11992	2905	35
1	12000	2910	36
1	12013	2910	35
1	12028	2915	34
1	12040	2920	35
1	12049	2920	34
1	12067	2925	33
1	12082	2930	34
1	12091	2930	33
1	12110	2935	32
1	12127	2940	33
1	12136	2940	33
1	12157	2945	33
1	12166	2950	34
1	12183	2950	34
1	12201	2955	33
1	12213	2960	34
1	12230	2960	33
1	12251	2965	32
1	12264	2970	33
1	12275	2970	32
1	12294	2975	31
1	12306	2980	32
1	12317	2980	31
1	12334	2985	30
1	12350	2990	31
1	12361	2990	31
1	12384	2995	31
1	12391	3000	32
1	12408	3000	32
1	12426	3005	32
1	12433	3010	33
1	12448	3010	32
1	12466	3015	31
1	12479	3020	32
1	12494	3020	31
1	12514	3025	30
1	12525	3030	31
1	12538	3030	30
1	12555	3035	30
1	12569	3040	31
1	12588	3040	31
1	12603	3045	31
1	12611	3050	32
1	12628	3050	32
1	12645	3055	32
1	12656	3060	33
1	12679	3060	33
1	12700	3065	33
1	12705	3070	34
1	12722	3070	34
1	12739	3075	34
1	12750	3080	35
1	12767	3080	34
1	12789	3085	33
1	12799	3090	34
1	12812	3090	33
1	12829	3095	32
1	12840	3100	33
1	12851	3100	32
1	12868	3105	31
1	12885	3110	32
1	12896	3110	31
1	12917	3115	30
1	12933	3120	31
1	12942	3120	30
1	12960	3125	29
1	12977	3130	30
1	12986	3130	29
1	13005	3135	28
1	13021	3140	29
1	13030	3140	28
1	13049	3145	27
1	13069	3150	28
1	13078	3150	27
1	13092	3155	27
1	13102	3160	28
1	13113	3160	28
1	13127	3165	28
1	13135	3170	29
1	13148	3170	29
1	13161	3175	29
1	13173	3180	30
1	13186	3180	30
1	13207	3185	30
1	13216	3190	31
1	13235	3190	31
1	13257	3195	31
1	13265	3200	32
1	13284	3200	32
1	13299	3205	32
1	13307	3210	33
1	13324	3210	33
1	13339	3215	33
1	13344	3220	34
1	13355	3220	34
1	13372	3225	34
1	13382	3230	35
1	13401	3230	35
1	13420	3235	35
1	13430	3240	36
1	13453	3240	36
1	13474	3245	36
1	13480	3250	37
1	13499	3250	37
1	13518	3255	37
1	13525	3260	38
1	13542	3260	38
1	13559	3265	38
1	13568	3270	39
1	13587	3270	39
1	13609	3275	39
1	13613	3280	40
1	13628	3280	40
1	13644	3285	40
1	13650	3290	41
1	13663	3290	41
1	13682	3295	41
1	13691	3300	42
1	13710	3300	42
1	13729	3305	42
1	13738	3310	43
1	13759	3310	43
1	13783	3315	43
1	13791	3320	44
1	13814	3320	44
1	13835	3325	44
1	13841	3330	45
1	13860	3330	45
1	13877	3335	45
1	13882	3340	46
1	13895	3340	46
1	13911	3345	46
1	13920	3350	47
1	13937	3350	47
1	13960	3355	47
1	13968	3360	48
1	13989	3360	48
1	14011	3365	48
1	14016	3370	49
1	14031	3370	49
1	14043	3375	49
1	14050	3380	50
1	14063	3380	50
1	14076	3385	50
1	14085	3390	51
1	14100	3390	51
1	14115	3395	51
1	14125	3400	52
1	14142	3400	52
1	14161	3405	52
1	14170	3410	53
1	14189	3410	52
1	14208	3415	51
1	14215	3420	52
1	14228	3420	51
1	14243	3425	50
1	14254	3430	51
1	14267	3430	50
1	14285	3435	49
1	14299	3440	50
1	14309	3440	50
1	14333	3445	50
1	14338	3450	51
1	14351	3450	51
1	14366	3455	50
1	14378	3460	51
1	14391	3460	50
1	14411	3465	49
1	14429	3470	50
1	14442	3470	49
1	14466	3475	48
1	14481	3480	49
1	14494	3480	49
1	14514	3485	49
1	14522	3490	50
1	14539	3490	50
1	14559	3495	50
1	14567	3500	51
1	14582	3500	51
1	14591	3505	50
1	14603	3510	51
1	14614	3510	50
1	14631	3515	50
1	14646	3520	51
1	14663	3520	51
1	14683	3525	51
1	14690	3530	52
1	14705	3530	52
1	14719	3535	52
1	14728	3540	53
1	14741	3540	52
1	14759	3545	52
1	14769	3550	53
1	14784	3550	53
1	14802	3555	53
1	14811	3560	54
1	14828	3560	54
1	14844	3565	54
1	14853	3570	55
1	14870	3570	55
1	14884	3575	54
1	14894	3580	55
1	14909	3580	54
1	14924	3585	53
1	14933	3590	54
1	14944	3590	53
1	14958	3595	53
1	14968	3600	54
1	14981	3600	54
2	3	5	0
2	11	10	1
2	20	10	1
2	37	15	0
2	48	20	1
2	57	20	1
2	68	25	0
2	82	30	1
2	95	30	1
2	113	35	0
2	125	40	1
2	139	40	1
2	159	45	0
2	173	50	1
2	187	50	1
2	206	55	0
2	218	60	1
2	231	60	1
2	246	65	1
2	257	70	2
2	268	70	2
2	288	75	2
2	293	80	3
2	303	80	3
2	324	85	3
2	332	90	4
2	348	90	4
2	367	95	3
2	378	100	4
2	391	100	4
2	412	105	4
2	418	110	5
2	431	110	5
2	452	115	5
2	459	120	6
2	469	120	5
2	488	125	4
2	505	130	5
2	513	130	4
2	533	135	3
2	550	140	4
2	558	140	3
2	575	145	2
2	593	150	3
2	601	150	3
2	627	155	3
2	635	160	4
2	651	160	4
2	675	165	4
2	679	170	5
2	692	170	5
2	707	175	5
2	713	180	6
2	722	180	6
2	734	185	6
2	745	190	7
2	762	190	7
2	777	195	7
2	785	200	8
2	802	200	8
2	819	205	8
2	827	210	9
2	841	210	8
2	859	215	7
2	873	220	8
2	885	220	7
2	905	225	6
2	919	230	7
2	927	230	6
2	944	235	6
2	957	240	7
2	970	240	7
2	987	245	7
2	993	250	8
2	1006	250	8
2	1024	255	8
2	1035	260	9
2	1055	260	9
2	1075	265	8
2	1083	270	9
2	1096	270	9
2	1112	275	9
2	1119	280	10
2	1132	280	10
2	1153	285	10
2	1162	290	11
2	1176	290	11
2	1190	295	11
2	1197	300	12
2	1207	300	11
2	1222	305	10
2	1236	310	11
2	1246	310	10
2	1263	315	9
2	1279	320	10
2	1288	320	9
2	1302	325	8
2	1315	330	9
2	1323	330	8
2	1338	335	7
2	1357	340	8
2	1365	340	7
2	1387	345	6
2	1407	350	7
2	1415	350	6
2	1432	355	5
2	1450	360	6
2	1458	360	5
2	1474	365	4
2	1491	370	5
2	1499	370	4
2	1517	375	3
2	1534	380	4
2	1542	380	3
2	1560	385	2
2	1580	390	3
2	1588	390	2
2	1609	395	1
2	1626	400	2
2	1634	400	1
2	1651	405	1
2	1665	410	2
2	1678	410	2
2	1697	415	2
2	1702	420	3
2	1713	420	3
2	1730	425	3
2	1737	430	4
2	1747	430	3
2	1763	435	2
2	1778	440	3
2	1788	440	2
2	1806	445	2
2	1819	450	3
2	1832	450	3
2	1848	455	3
2	1855	460	4
2	1869	460	4
2	1885	465	3
2	1896	470	4
2	1908	470	3
2	1926	475	2
2	1942	480	3
2	1954	480	2
2	1973	485	1
2	1990	490	2
2	2001	490	2
2	2026	495	2
2	2035	500	3
2	2053	500	3
2	2072	505	3
2	2081	510	4
2	2097	510	4
2	2111	515	4
2	2118	520	5
2	2130	520	5
2	2146	525	5
2	2155	530	6
2	2169	530	6
2	2187	535	6
2	2197	540	7
2	2215	540	7
2	2236	545	7
2	2245	550	8
2	2261	550	8
2	2275	555	8
2	2285	560	9
2	2298	560	8
2	2312	565	8
2	2323	570	9
2	2337	570	9
2	2352	575	9
2	2362	580	10
2	2376	580	10
2	2391	585	10
2	2399	590	11
2	2411	590	10
2	2429	595	10
2	2442	600	11
2	2456	600	11
2	2468	605	11
2	2476	610	12
2	2489	610	12
2	2502	615	12
2	2511	620	13
2	2521	620	12
2	2530	625	11
2	2544	630	12
2	2552	630	11
2	2571	635	10
2	2593	640	11
2	2601	640	10
2	2624	645	10
2	2639	650	11
2	2654	650	11
2	2672	655	11
2	2680	660	12
2	2695	660	12
2	2711	665	12
2	2720	670	13
2	2736	670	13
2	2755	675	12
2	2767	680	13
2	2779	680	12
2	2793	685	11
2	2809	690	12
2	2819	690	11
2	2838	695	10
2	2856	700	11
2	2866	700	11
2	2891	705	11
2	2898	710	12
2	2912	710	12
2	2924	715	12
2	2932	720	13
2	2945	720	13
2	2961	725	13
2	2970	730	14
2	2984	730	13
2	3002	735	12
2	3015	740	13
2	3025	740	12
2	3041	745	11
2	3053	750	12
2	3061	750	11
2	3074	755	10
2	3087	760	11
2	3095	760	10
2	3109	765	9
2	3126	770	10
2	3134	770	9
2	3153	775	8
2	3172	780	9
2	3180	780	8
2	3199	785	8
2	3215	790	9
2	3230	790	9
2	3249	795	9
2	3256	800	10
2	3267	800	9
2	3280	805	8
2	3292	810	9
2	3302	810	8
2	3317	815	7
2	3333	820	8
2	3343	820	7
2	3364	825	6
2	3381	830	7
2	3389	830	7
2	3409	835	7
2	3418	840	8
2	3432	840	8
2	3449	845	7
2	3462	850	8
2	3474	850	7
2	3494	855	6
2	3511	860	7
2	3523	860	6
2	3544	865	5
2	3561	870	6
2	3571	870	5
2	3592	875	4
2	3608	880	5
2	3618	880	4
2	3638	885	3
2	3657	890	4
2	3667	890	3
2	3687	895	2
2	3705	900	3
2	3713	900	2
2	3730	905	1
2	3748	910	2
2	3756	910	1
2	3771	915	0
2	3782	920	1
2	3793	920	1
2	3805	925	0
2	3820	930	1
2	3839	930	1
2	3858	935	0
2	3869	940	1
2	3888	940	1
2	3903	945	1
2	3909	950	2
2	3922	950	2
2	3938	955	2
2	3947	960	3
2	3962	960	3
2	3973	965	3
2	3983	970	4
2	4000	970	4
2	4015	975	3
2	4025	980	4
2	4037	980	3
2	4054	985	2
2	4069	990	3
2	4080	990	3
2	4096	995	3
2	4103	1000	4
2	4116	1000	4
2	4130	1005	4
2	4142	1010	5
2	4157	1010	5
2	4173	1015	5
2	4179	1020	6
2	4192	1020	6
2	4205	1025	6
2	4214	1030	7
2	4228	1030	7
2	4250	1035	7
2	4258	1040	8
2	4274	1040	7
2	4294	1045	6
2	4307	1050	7
2	4322	1050	6
2	4338	1055	5
2	4350	1060	6
2	4364	1060	5
2	4383	1065	5
2	4393	1070	6
2	4407	1070	6
2	4422	1075	6
2	4433	1080	7
2	4451	1080	7
2	4471	1085	7
2	4476	1090	8
2	4488	1090	7
2	4503	1095	6
2	4515	1100	7
2	4526	1100	6
2	4539	1105	5
2	4554	1110	6
2	4563	1110	5
2	4579	1115	4
2	4598	1120	5
2	4606	1120	4
2	4621	1125	3
2	4636	1130	4
2	4644	1130	3
2	4661	1135	2
2	4677	1140	3
2	4685	1140	2
2	4704	1145	1
2	4726	1150	2
2	4734	1150	2
2	4756	1155	2
2	4764	1160	3
2	4779	1160	3
2	4792	1165	3
2	4798	1170	4
2	4809	1170	4
2	4824	1175	3
2	4836	1180	4
2	4846	1180	3
2	4861	1185	2
2	4875	1190	3
2	4884	1190	2
2	4899	1195	2
2	4914	1200	3
2	4928	1200	3
2	4943	1205	3
2	4953	1210	4
2	4967	1210	4
2	4979	1215	3
2	4993	1220	4
2	5003	1220	4
2	5018	1225	4
2	5026	1230	5
2	5039	1230	5
2	5054	1235	5
2	5065	1240	6
2	5078	1240	5
2	5093	1245	4
2	5106	1250	5
2	5118	1250	4
2	5135	1255	4
2	5148	1260	5
2	5163	1260	5
2	5176	1265	5
2	5186	1270	6
2	5198	1270	5
2	5210	1275	4
2	5223	1280	5
2	5233	1280	4
2	5249	1285	3
2	5265	1290	4
2	5275	1290	3
2	5294	1295	2
2	5313	1300	3
2	5323	1300	2
2	5345	1305	2
2	5359	1310	3
2	5374	1310	3
2	5387	1315	3
2	5394	1320	4
2	5406	1320	4
2	5421	1325	3
2	5435	1330	4
2	5447	1330	3
2	5467	1335	3
2	5483	1340	4
2	5502	1340	4
2	5519	1345	4
2	5525	1350	5
2	5540	1350	5
2	5555	1355	4
2	5566	1360	5
2	5580	1360	4
2	5597	1365	4
2	5609	1370	5
2	5625	1370	5
2	5638	1375	5
2	5645	1380	6
2	5653	1380	5
2	5667	1385	5
2	5679	1390	6
2	5692	1390	6
2	5708	1395	6
2	5717	1400	7
2	5733	1400	7
2	5751	1405	7
2	5758	1410	8
2	5772	1410	8
2	5788	1415	7
2	5800	1420	8
2	5813	1420	7
2	5827	1425	6
2	5838	1430	7
2	5850	1430	6
2	5868	1435	5
2	5886	1440	6
2	5898	1440	5
2	5920	1445	5
2	5935	1450	6
2	5950	1450	6
2	5961	1455	6
2	5970	1460	7
2	5985	1460	7
2	6002	1465	7
2	6014	1470	8
2	6033	1470	8
2	6052	1475	8
2	6060	1480	9
2	6078	1480	9
2	6097	1485	9
2	6106	1490	10
2	6122	1490	10
2	6139	1495	10
2	6147	1500	11
2	6164	1500	11
2	6182	1505	10
2	6197	1510	11
2	6212	1510	10
2	6232	1515	9
2	6247	1520	10
2	6261	1520	9
2	6279	1525	8
2	6290	1530	9
2	6298	1530	8
2	6313	1535	7
2	6330	1540	8
2	6338	1540	7
2	6354	1545	6
2	6372	1550	7
2	6380	1550	6
2	6401	1555	5
2	6414	1560	6
2	6422	1560	5
2	6435	1565	4
2	6449	1570	5
2	6457	1570	5
2	6476	1575	5
2	6487	1580	6
2	6503	1580	6
2	6519	1585	6
2	6528	1590	7
2	6542	1590	7
2	6554	1595	6
2	6564	1600	7
2	6574	1600	6
2	6587	1605	5
2	6598	1610	6
2	6608	1610	5
2	6622	1615	4
2	6638	1620	5
2	6648	1620	4
2	6666	1625	3
2	6679	1630	4
2	6689	1630	3
2	6705	1635	2
2	6723	1640	3
2	6733	1640	3
2	6758	1645	3
2	6766	1650	4
2	6780	1650	4
2	6794	1655	4
2	6804	1660	5
2	6820	1660	5
2	6840	1665	5
2	6852	1670	6
2	6869	1670	5
2	6887	1675	4
2	6898	1680	5
2	6910	1680	4
2	6927	1685	3
2	6941	1690	4
2	6953	1690	3
2	6972	1695	2
2	6987	1700	3
2	6997	1700	2
2	7013	1705	1
2	7028	1710	2
2	7037	1710	1
2	7050	1715	0
2	7066	1720	1
2	7083	1720	1
2	7099	1725	1
2	7106	1730	2
2	7119	1730	2
2	7132	1735	2
2	7144	1740	3
2	7164	1740	3
2	7185	1745	3
2	7194	1750	4
2	7212	1750	4
2	7227	1755	4
2	7236	1760	5
2	7252	1760	5
2	7270	1765	4
2	7283	1770	5
2	7294	1770	5
2	7316	1775	5
2	7325	1780	6
2	7344	1780	6
2	7361	1785	6
2	7368	1790	7
2	7384	1790	7
2	7402	1795	6
2	7414	1800	7
2	7428	1800	6
2	7447	1805	5
2	7458	1810	6
2	7468	1810	5
2	7483	1815	4
2	7496	1820	5
2	7505	1820	4
2	7516	1825	4
2	7526	1830	5
2	7536	1830	5
2	7551	1835	5
2	7559	1840	6
2	7571	1840	6
2	7584	1845	6
2	7596	1850	7
2	7608	1850	6
2	7627	1855	5
2	7637	1860	6
2	7647	1860	5
2	7660	1865	4
2	7671	1870	5
2	7681	1870	4
2	7695	1875	3
2	7709	1880	4
2	7719	1880	3
2	7739	1885	2
2	7752	1890	3
2	7762	1890	2
2	7777	1895	1
2	7791	1900	2
2	7800	1900	1
2	7812	1905	0
2	7825	1910	1
2	7838	1910	1
2	7856	1915	0
2	7871	1920	1
2	7889	1920	1
2	7901	1925	0
2	7907	1930	1
2	7916	1930	1
2	7925	1935	0
2	7937	1940	1
2	7950	1940	1
2	7964	1945	0
2	7979	1950	1
2	7998	1950	1
2	8016	1955	0
2	8026	1960	1
2	8044	1960	1
2	8063	1965	1
2	8071	1970	2
2	8085	1970	2
2	8099	1975	2
2	8108	1980	3
2	8122	1980	3
2	8138	1985	2
2	8149	1990	3
2	8162	1990	3
2	8175	1995	3
2	8185	2000	4
2	8202	2000	4
2	8219	2005	4
2	8229	2010	5
2	8249	2010	5
2	8268	2015	5
2	8277	2020	6
2	8292	2020	6
2	8310	2025	6
2	8319	2030	7
2	8333	2030	7
2	8348	2035	7
2	8358	2040	8
2	8377	2040	8
2	8394	2045	7
2	8404	2050	8
2	8417	2050	8
2	8432	2055	8
2	8443	2060	9
2	8459	2060	9
2	8473	2065	9
2	8483	2070	10
2	8497	2070	10
2	8512	2075	10
2	8522	2080	11
2	8538	2080	11
2	8554	2085	10
2	8563	2090	11
2	8575	2090	10
2	8590	2095	9
2	8604	2100	10
2	8612	2100	10
2	8629	2105	10
2	8640	2110	11
2	8656	2110	11
2	8674	2115	11
2	8683	2120	12
2	8700	2120	12
2	8711	2125	11
2	8720	2130	12
2	8730	2130	11
2	8745	2135	11
2	8758	2140	12
2	8775	2140	12
2	8795	2145	12
2	8804	2150	13
2	8823	2150	13
2	8838	2155	13
2	8847	2160	14
2	8862	2160	14
2	8877	2165	14
2	8887	2170	15
2	8905	2170	15
2	8926	2175	15
2	8931	2180	16
2	8945	2180	16
2	8960	2185	16
2	8970	2190	17
2	8984	2190	17
2	8999	2195	17
2	9007	2200	18
2	9022	2200	18
2	9042	2205	17
2	9057	2210	18
2	9071	2210	17
2	9084	2215	16
2	9095	2220	17
2	9107	2220	16
2	9123	2225	15
2	9136	2230	16
2	9148	2230	15
2	9165	2235	14
2	9180	2240	15
2	9190	2240	14
2	9210	2245	13
2	9223	2250	14
2	9231	2250	13
2	9246	2255	12
2	9261	2260	13
2	9269	2260	12
2	9285	2265	11
2	9304	2270	12
2	9312	2270	11
2	9334	2275	11
2	9353	2280	12
2	9369	2280	12
2	9386	2285	12
2	9395	2290	13
2	9411	2290	12
2	9432	2295	11
2	9447	2300	12
2	9462	2300	11
2	9480	2305	10
2	9492	2310	11
2	9504	2310	10
2	9522	2315	9
2	9537	2320	10
2	9548	2320	9
2	9563	2325	8
2	9579	2330	9
2	9589	2330	8
2	9609	2335	7
2	9628	2340	8
2	9638	2340	7
2	9659	2345	6
2	9679	2350	7
2	9689	2350	6
2	9705	2355	5
2	9720	2360	6
2	9730	2360	5
2	9743	2365	4
2	9756	2370	5
2	9766	2370	4
2	9785	2375	3
2	9806	2380	4
2	9816	2380	3
2	9833	2385	2
2	9848	2390	3
2	9858	2390	2
2	9875	2395	1
2	9892	2400	2
2	9902	2400	1
2	9920	2405	0
2	9935	2410	1
2	9949	2410	1
2	9965	2415	0
2	9977	2420	1
2	9995	2420	1
2	10012	2425	0
2	10018	2430	1
2	10029	2430	1
2	10040	2435	0
2	10051	2440	1
2	10064	2440	1
2	10078	2445	0
2	10092	2450	1
2	10110	2450	1
2	10130	2455	0
2	10140	2460	1
2	10158	2460	1
2	10178	2465	0
2	10189	2470	1
2	10209	2470	1
2	10227	2475	0
2	10233	2480	1
2	10246	2480	1
2	10260	2485	0
2	10273	2490	1
2	10289	2490	1
2	10306	2495	1
2	10315	2500	2
2	10330	2500	2
2	10347	2505	2
2	10355	2510	3
2	10372	2510	3
2	10387	2515	2
2	10395	2520	3
2	10405	2520	2
2	10420	2525	1
2	10435	2530	2
2	10445	2530	1
2	10464	2535	0
2	10479	2540	1
2	10496	2540	1
2	10514	2545	0
2	10526	2550	1
2	10545	2550	1
2	10563	2555	0
2	10572	2560	1
2	10587	2560	1
2	10603	2565	1
2	10610	2570	2
2	10621	2570	2
2	10641	2575	2
2	10648	2580	3
2	10663	2580	3
2	10682	2585	3
2	10689	2590	4
2	10699	2590	3
2	10712	2595	2
2	10729	2600	3
2	10737	2600	2
2	10757	2605	2
2	10774	2610	3
2	10791	2610	3
2	10811	2615	3
2	10818	2620	4
2	10835	2620	4
2	10853	2625	3
2	10865	2630	4
2	10881	2630	3
2	10902	2635	2
2	10915	2640	3
2	10928	2640	2
2	10943	2645	1
2	10955	2650	2
2	10967	2650	1
2	10984	2655	0
2	10998	2660	1
2	11015	2660	1
2	11036	2665	0
2	11048	2670	1
2	11068	2670	1
2	11090	2675	0
2	11099	2680	1
2	11117	2680	1
2	11137	2685	0
2	11148	2690	1
2	11166	2690	1
2	11182	2695	0
2	11193	2700	1
2	11209	2700	1
2	11223	2705	0
2	11232	2710	1
2	11244	2710	1
2	11258	2715	0
2	11267	2720	1
2	11277	2720	1
2	11289	2725	0
2	11303	2730	1
2	11319	2730	1
2	11334	2735	0
2	11346	2740	1
2	11361	2740	1
2	11373	2745	0
2	11385	2750	1
2	11400	2750	1
2	11415	2755	0
2	11422	2760	1
2	11433	2760	1
2	11446	2765	0
2	11462	2770	1
2	11476	2770	1
2	11483	2775	1
2	11491	2780	2
2	11500	2780	2
2	11513	2785	2
2	11520	2790	3
2	11531	2790	3
2	11545	2795	3
2	11554	2800	4
2	11566	2800	3
2	11583	2805	2
2	11600	2810	3
2	11611	2810	3
2	11628	2815	3
2	11634	2820	4
2	11645	2820	4
2	11659	2825	4
2	11668	2830	5
2	11680	2830	4
2	11697	2835	3
2	11712	2840	4
2	11724	2840	3
2	11743	2845	2
2	11759	2850	3
2	11769	2850	2
2	11784	2855	1
2	11797	2860	2
2	11805	2860	1
2	11818	2865	0
2	11833	2870	1
2	11850	2870	1
2	11869	2875	0
2	11878	2880	1
2	11892	2880	1
2	11909	2885	0
2	11920	2890	1
2	11934	2890	1
2	11951	2895	1
2	11961	2900	2
2	11978	2900	2
2	11993	2905	2
2	12001	2910	3
2	12015	2910	2
2	12030	2915	1
2	12041	2920	2
2	12051	2920	1
2	12069	2925	0
2	12083	2930	1
2	12099	2930	1
2	12117	2935	1
2	12128	2940	2
2	12144	2940	2
2	12158	2945	2
2	12167	2950	3
2	12184	2950	3
2	12203	2955	3
2	12214	2960	4
2	12232	2960	3
2	12253	2965	2
2	12265	2970	3
2	12277	2970	2
2	12296	2975	2
2	12307	2980	3
2	12321	2980	3
2	12342	2985	3
2	12351	2990	4
2	12367	2990	4
2	12385	2995	4
2	12392	3000	5
2	12406	3000	4
2	12423	3005	4
2	12434	3010	5
2	12450	3010	5
2	12470	3015	5
2	12480	3020	6
2	12500	3020	6
2	12519	3025	6
2	12526	3030	7
2	12542	3030	7
2	12558	3035	6
2	12570	3040	7
2	12581	3040	6
2	12597	3045	5
2	12612	3050	6
2	12622	3050	5
2	12639	3055	4
2	12657	3060	5
2	12667	3060	4
2	12690	3065	3
2	12706	3070	4
2	12714	3070	3
2	12731	3075	2
2	12751	3080	3
2	12759	3080	2
2	12783	3085	1
2	12800	3090	2
2	12808	3090	1
2	12825	3095	0
2	12841	3100	1
2	12855	3100	1
2	12872	3105	0
2	12886	3110	1
2	12906	3110	1
2	12926	3115	0
2	12934	3120	1
2	12950	3120	1
2	12968	3125	0
2	12978	3130	1
2	12994	3130	1
2	13012	3135	0
2	13022	3140	1
2	13038	3140	1
2	13057	3145	0
2	13070	3150	1
2	13086	3150	1
2	13095	3155	1
2	13103	3160	2
2	13114	3160	2
2	13128	3165	2
2	13136	3170	3
2	13149	3170	3
2	13162	3175	3
2	13174	3180	4
2	13187	3180	3
2	13203	3185	2
2	13217	3190	3
2	13229	3190	2
2	13249	3195	1
2	13266	3200	2
2	13278	3200	2
2	13300	3205	2
2	13308	3210	3
2	13325	3210	3
2	13340	3215	3
2	13345	3220	4
2	13356	3220	4
2	13373	3225	4
2	13383	3230	5
2	13397	3230	4
2	13416	3235	3
2	13431	3240	4
2	13445	3240	3
2	13468	3245	2
2	13481	3250	3
2	13495	3250	2
2	13514	3255	1
2	13526	3260	2
2	13538	3260	1
2	13555	3265	0
2	13569	3270	1
2	13588	3270	1
2	13606	3275	0
2	13614	3280	1
2	13629	3280	1
2	13643	3285	1
2	13651	3290	2
2	13664	3290	2
2	13683	3295	2
2	13692	3300	3
2	13711	3300	3
2	13730	3305	3
2	13739	3310	4
2	13757	3310	3
2	13779	3315	2
2	13792	3320	3
2	13810	3320	2
2	13831	3325	1
2	13842	3330	2
2	13856	3330	1
2	13873	3335	0
2	13883	3340	1
2	13896	3340	1
2	13909	3345	0
2	13921	3350	1
2	13938	3350	1
2	13956	3355	0
2	13969	3360	1
2	13990	3360	1
2	14009	3365	0
2	14017	3370	1
2	14032	3370	1
2	14042	3375	1
2	14051	3380	2
2	14064	3380	2
2	14077	3385	2
2	14086	3390	3
2	14101	3390	3
2	14116	3395	3
2	14126	3400	4
2	14143	3400	4
2	14157	3405	3
2	14171	3410	4
2	14185	3410	3
2	14205	3415	2
2	14216	3420	3
2	14226	3420	2
2	14241	3425	1
2	14255	3430	2
2	14265	3430	1
2	14283	3435	0
2	14300	3440	1
2	14316	3440	1
2	14330	3445	0
2	14339	3450	1
2	14352	3450	1
2	14368	3455	0
2	14379	3460	1
2	14395	3460	1
2	14415	3465	0
2	14430	3470	1
2	14452	3470	1
2	14474	3475	0
2	14482	3480	1
2	14498	3480	1
2	14512	3485	0
2	14523	3490	1
2	14540	3490	1
2	14557	3495	0
2	14568	3500	1
2	14583	3500	1
2	14593	3505	0
2	14604	3510	1
2	14618	3510	1
2	14634	3515	0
2	14647	3520	1
2	14664	3520	1
2	14681	3525	0
2	14691	3530	1
2	14706	3530	1
2	14717	3535	0
2	14729	3540	1
2	14745	3540	1
2	14762	3545	1
2	14770	3550	2
2	14785	3550	2
2	14803	3555	2
2	14812	3560	3
2	14829	3560	3
2	14842	3565	2
2	14854	3570	3
2	14867	3570	2
2	14882	3575	1
2	14895	3580	2
2	14907	3580	1
2	14923	3585	1
2	14934	3590	2
2	14948	3590	2
2	14961	3595	2
2	14969	3600	3
2	14982	3600	3
3	4	5	0
3	12	10	1
3	21	10	1
3	39	15	0
3	49	20	1
3	58	20	1
3	70	25	0
3	83	30	1
3	96	30	1
3	115	35	0
3	126	40	1
3	140	40	1
3	161	45	0
3	174	50	1
3	188	50	1
3	208	55	0
3	219	60	1
3	232	60	1
3	247	65	0
3	258	70	1
3	269	70	1
3	283	75	0
3	294	80	1
3	304	80	1
3	318	85	1
3	333	90	2
3	349	90	2
3	371	95	2
3	379	100	3
3	393	100	3
3	408	105	2
3	419	110	3
3	428	110	2
3	444	115	1
3	460	120	2
3	467	120	1
3	486	125	0
3	506	130	1
3	520	130	1
3	540	135	0
3	551	140	1
3	565	140	1
3	581	145	0
3	594	150	1
3	607	150	1
3	621	155	0
3	636	160	1
3	652	160	1
3	669	165	0
3	680	170	1
3	693	170	1
3	708	175	1
3	714	180	2
3	723	180	2
3	735	185	2
3	746	190	3
3	763	190	3
3	778	195	3
3	786	200	4
3	797	200	3
3	814	205	2
3	828	210	3
3	837	210	2
3	855	215	1
3	874	220	2
3	881	220	1
3	903	225	1
3	920	230	2
3	936	230	2
3	951	235	2
3	958	240	3
3	971	240	3
3	988	245	3
3	994	250	4
3	1007	250	4
3	1022	255	3
3	1036	260	4
3	1049	260	3
3	1070	265	2
3	1084	270	3
3	1092	270	2
3	1105	275	1
3	1120	280	2
3	1127	280	1
3	1143	285	0
3	1163	290	1
3	1177	290	1
3	1185	295	0
3	1198	300	1
3	1210	300	1
3	1224	305	0
3	1237	310	1
3	1250	310	1
3	1267	315	0
3	1280	320	1
3	1293	320	1
3	1306	325	1
3	1316	330	2
3	1328	330	2
3	1346	335	2
3	1358	340	3
3	1373	340	2
3	1393	345	1
3	1408	350	2
3	1418	350	1
3	1434	355	0
3	1451	360	1
3	1466	360	1
3	1480	365	0
3	1492	370	1
3	1507	370	1
3	1525	375	0
3	1535	380	1
3	1548	380	1
3	1566	385	0
3	1581	390	1
3	1598	390	1
3	1617	395	0
3	1627	400	1
3	1641	400	1
3	1655	405	0
3	1666	410	1
3	1679	410	1
3	1693	415	0
3	1703	420	1
3	1714	420	1
3	1725	425	0
3	1738	430	1
3	1750	430	1
3	1765	435	0
3	1779	440	1
3	1793	440	1
3	1809	445	0
3	1820	450	1
3	1833	450	1
3	1845	455	1
3	1856	460	2
3	1870	460	2
3	1888	465	2
3	1897	470	3
3	1913	470	3
3	1933	475	3
3	1943	480	4
3	1960	480	4
3	1977	485	3
3	1991	490	4
3	2004	490	3
3	2020	495	2
3	2036	500	3
3	2047	500	2
3	2067	505	1
3	2082	510	2
3	2093	510	1
3	2108	515	0
3	2119	520	1
3	2131	520	1
3	2144	525	0
3	2156	530	1
3	2170	530	1
3	2185	535	0
3	2198	540	1
3	2216	540	1
3	2237	545	1
3	2246	550	2
3	2262	550	2
3	2276	555	2
3	2286	560	3
3	2300	560	3
3	2316	565	3
3	2324	570	4
3	2338	570	4
3	2353	575	4
3	2363	580	5
3	2377	580	5
3	2392	585	5
3	2400	590	6
3	2414	590	6
3	2436	595	6
3	2443	600	7
3	2457	600	7
3	2469	605	7
3	2477	610	8
3	2486	610	7
3	2499	615	6
3	2512	620	7
3	2520	620	7
3	2533	625	7
3	2545	630	8
3	2560	630	8
3	2579	635	7
3	2594	640	8
3	2609	640	7
3	2630	645	6
3	2640	650	7
3	2651	650	6
3	2667	655	5
3	2681	660	6
3	2691	660	5
3	2705	665	4
3	2721	670	5
3	2730	670	4
3	2750	675	3
3	2768	680	4
3	2777	680	4
3	2800	685	4
3	2810	690	5
3	2828	690	5
3	2847	695	5
3	2857	700	6
3	2875	700	6
3	2889	705	6
3	2899	710	7
3	2913	710	7
3	2925	715	7
3	2933	720	8
3	2946	720	8
3	2958	725	7
3	2971	730	8
3	2982	730	7
3	3000	735	6
3	3016	740	7
3	3023	740	6
3	3040	745	6
3	3054	750	7
3	3064	750	7
3	3081	755	7
3	3088	760	8
3	3098	760	8
3	3118	765	8
3	3127	770	9
3	3138	770	8
3	3157	775	7
3	3173	780	8
3	3184	780	7
3	3202	785	6
3	3216	790	7
3	3225	790	6
3	3242	795	6
3	3257	800	7
3	3271	800	7
3	3285	805	7
3	3293	810	8
3	3305	810	8
3	3323	815	8
3	3334	820	9
3	3351	820	9
3	3370	825	8
3	3382	830	9
3	3392	830	8
3	3405	835	7
3	3419	840	8
3	3428	840	7
3	3446	845	6
3	3463	850	7
3	3472	850	6
3	3492	855	5
3	3512	860	6
3	3521	860	5
3	3543	865	5
3	3562	870	6
3	3581	870	6
3	3600	875	6
3	3609	880	7
3	3624	880	6
3	3644	885	5
3	3658	890	6
3	3673	890	5
3	3693	895	4
3	3706	900	5
3	3718	900	5
3	3739	905	5
3	3749	910	6
3	3764	910	6
3	3775	915	6
3	3783	920	7
3	3794	920	7
3	3810	925	7
3	3821	930	8
3	3832	930	7
3	3852	935	6
3	3870	940	7
3	3880	940	6
3	3897	945	5
3	3910	950	6
3	3917	950	5
3	3931	955	4
3	3948	960	5
3	3955	960	5
3	3974	965	5
3	3984	970	6
3	4001	970	6
3	4018	975	6
3	4026	980	7
3	4041	980	7
3	4058	985	7
3	4070	990	8
3	4082	990	8
3	4097	995	8
3	4104	1000	9
3	4117	1000	9
3	4131	1005	8
3	4143	1010	9
3	4152	1010	8
3	4168	1015	8
3	4180	1020	9
3	4193	1020	9
3	4206	1025	9
3	4215	1030	10
3	4229	1030	10
3	4251	1035	10
3	4259	1040	11
3	4276	1040	11
3	4296	1045	10
3	4308	1050	11
3	4324	1050	11
3	4340	1055	11
3	4351	1060	12
3	4368	1060	12
3	4385	1065	11
3	4394	1070	12
3	4403	1070	11
3	4418	1075	10
3	4434	1080	11
3	4443	1080	10
3	4463	1085	10
3	4477	1090	11
3	4491	1090	11
3	4506	1095	11
3	4516	1100	12
3	4529	1100	12
3	4544	1105	12
3	4555	1110	13
3	4567	1110	12
3	4583	1115	11
3	4599	1120	12
3	4609	1120	11
3	4623	1125	10
3	4637	1130	11
3	4646	1130	10
3	4663	1135	9
3	4678	1140	10
3	4687	1140	9
3	4706	1145	8
3	4727	1150	9
3	4735	1150	8
3	4749	1155	7
3	4765	1160	8
3	4772	1160	7
3	4787	1165	7
3	4799	1170	8
3	4810	1170	8
3	4829	1175	8
3	4837	1180	9
3	4851	1180	9
3	4866	1185	9
3	4876	1190	10
3	4889	1190	10
3	4902	1195	9
3	4915	1200	10
3	4924	1200	9
3	4939	1205	8
3	4954	1210	9
3	4963	1210	8
3	4977	1215	7
3	4994	1220	8
3	5002	1220	8
3	5019	1225	8
3	5027	1230	9
3	5040	1230	9
3	5055	1235	9
3	5066	1240	10
3	5081	1240	10
3	5095	1245	9
3	5107	1250	10
3	5120	1250	9
3	5136	1255	8
3	5149	1260	9
3	5158	1260	8
3	5172	1265	7
3	5187	1270	8
3	5195	1270	8
3	5214	1275	8
3	5224	1280	9
3	5237	1280	9
3	5255	1285	9
3	5266	1290	10
3	5281	1290	9
3	5300	1295	8
3	5314	1300	9
3	5329	1300	8
3	5349	1305	8
3	5360	1310	9
3	5375	1310	9
3	5388	1315	9
3	5395	1320	10
3	5407	1320	10
3	5425	1325	10
3	5436	1330	11
3	5453	1330	11
3	5472	1335	10
3	5484	1340	11
3	5497	1340	10
3	5515	1345	10
3	5526	1350	11
3	5541	1350	11
3	5558	1355	11
3	5567	1360	12
3	5583	1360	12
3	5602	1365	12
3	5610	1370	13
3	5623	1370	12
3	5637	1375	12
3	5646	1380	13
3	5658	1380	13
3	5672	1385	13
3	5680	1390	14
3	5689	1390	13
3	5703	1395	12
3	5718	1400	13
3	5727	1400	12
3	5744	1405	11
3	5759	1410	12
3	5766	1410	11
3	5782	1415	10
3	5801	1420	11
3	5808	1420	11
3	5829	1425	11
3	5839	1430	12
3	5852	1430	12
3	5876	1435	12
3	5887	1440	13
3	5906	1440	12
3	5927	1445	12
3	5936	1450	13
3	5951	1450	13
3	5962	1455	13
3	5971	1460	14
3	5982	1460	13
3	6000	1465	12
3	6015	1470	13
3	6026	1470	12
3	6046	1475	12
3	6061	1480	13
3	6079	1480	13
3	6098	1485	13
3	6107	1490	14
3	6123	1490	14
3	6136	1495	13
3	6148	1500	14
3	6161	1500	13
3	6180	1505	12
3	6198	1510	13
3	6211	1510	13
3	6238	1515	13
3	6248	1520	14
3	6267	1520	14
3	6284	1525	14
3	6291	1530	15
3	6305	1530	15
3	6320	1535	15
3	6331	1540	16
3	6343	1540	15
3	6358	1545	14
3	6373	1550	15
3	6384	1550	14
3	6404	1555	14
3	6415	1560	15
3	6426	1560	15
3	6439	1565	15
3	6450	1570	16
3	6461	1570	16
3	6472	1575	15
3	6488	1580	16
3	6497	1580	15
3	6513	1585	14
3	6529	1590	15
3	6538	1590	15
3	6557	1595	15
3	6565	1600	16
3	6576	1600	16
3	6589	1605	16
3	6599	1610	17
3	6610	1610	17
3	6626	1615	17
3	6639	1620	18
3	6651	1620	17
3	6668	1625	17
3	6680	1630	18
3	6693	1630	18
3	6711	1635	18
3	6724	1640	19
3	6743	1640	19
3	6759	1645	19
3	6767	1650	20
3	6778	1650	19
3	6790	1655	18
3	6805	1660	19
3	6814	1660	18
3	6832	1665	17
3	6853	1670	18
3	6861	1670	17
3	6881	1675	17
3	6899	1680	18
3	6915	1680	18
3	6932	1685	18
3	6942	1690	19
3	6960	1690	19
3	6980	1695	19
3	6988	1700	20
3	7003	1700	20
3	7017	1705	19
3	7029	1710	20
3	7040	1710	19
3	7052	1715	18
3	7067	1720	19
3	7074	1720	18
3	7093	1725	17
3	7107	1730	18
3	7114	1730	17
3	7127	1735	16
3	7145	1740	17
3	7152	1740	16
3	7174	1745	15
3	7195	1750	16
3	7202	1750	16
3	7228	1755	16
3	7237	1760	17
3	7253	1760	17
3	7272	1765	16
3	7284	1770	17
3	7295	1770	16
3	7309	1775	15
3	7326	1780	16
3	7335	1780	15
3	7353	1785	14
3	7369	1790	15
3	7376	1790	14
3	7395	1795	14
3	7415	1800	15
3	7434	1800	15
3	7452	1805	15
3	7459	1810	16
3	7473	1810	16
3	7488	1815	16
3	7497	1820	17
3	7509	1820	17
3	7517	1825	17
3	7527	1830	18
3	7537	1830	18
3	7552	1835	18
3	7560	1840	19
3	7572	1840	19
3	7585	1845	19
3	7597	1850	20
3	7614	1850	20
3	7631	1855	20
3	7638	1860	21
3	7649	1860	21
3	7662	1865	21
3	7672	1870	22
3	7683	1870	22
3	7699	1875	22
3	7710	1880	23
3	7725	1880	23
3	7747	1885	23
3	7753	1890	24
3	7766	1890	24
3	7781	1895	24
3	7792	1900	25
3	7805	1900	25
3	7817	1905	25
3	7826	1910	26
3	7839	1910	26
3	7862	1915	26
3	7872	1920	27
3	7890	1920	27
3	7903	1925	27
3	7908	1930	28
3	7917	1930	28
3	7928	1935	28
3	7938	1940	29
3	7945	1940	28
3	7960	1945	27
3	7980	1950	28
3	7987	1950	27
3	8006	1955	26
3	8027	1960	27
3	8034	1960	26
3	8054	1965	25
3	8072	1970	26
3	8079	1970	26
3	8100	1975	26
3	8109	1980	27
3	8123	1980	27
3	8140	1985	27
3	8150	1990	28
3	8163	1990	28
3	8176	1995	28
3	8186	2000	29
3	8195	2000	28
3	8212	2005	27
3	8230	2010	28
3	8239	2010	27
3	8259	2015	26
3	8278	2020	27
3	8285	2020	26
3	8302	2025	25
3	8320	2030	26
3	8327	2030	25
3	8341	2035	24
3	8359	2040	25
3	8366	2040	24
3	8386	2045	23
3	8405	2050	24
3	8412	2050	23
3	8426	2055	22
3	8444	2060	23
3	8451	2060	22
3	8468	2065	22
3	8484	2070	23
3	8498	2070	23
3	8513	2075	23
3	8523	2080	24
3	8539	2080	24
3	8556	2085	24
3	8564	2090	25
3	8578	2090	25
3	8592	2095	24
3	8605	2100	25
3	8613	2100	24
3	8625	2105	23
3	8641	2110	24
3	8648	2110	23
3	8666	2115	23
3	8684	2120	24
3	8701	2120	24
3	8714	2125	24
3	8721	2130	25
3	8733	2130	25
3	8749	2135	25
3	8759	2140	26
3	8770	2140	25
3	8788	2145	24
3	8805	2150	25
3	8815	2150	24
3	8831	2155	23
3	8848	2160	24
3	8857	2160	24
3	8878	2165	24
3	8888	2170	25
3	8906	2170	25
3	8924	2175	25
3	8932	2180	26
3	8946	2180	26
3	8961	2185	26
3	8971	2190	27
3	8985	2190	27
3	9000	2195	27
3	9008	2200	28
3	9023	2200	28
3	9044	2205	27
3	9058	2210	28
3	9073	2210	28
3	9086	2215	28
3	9096	2220	29
3	9109	2220	29
3	9127	2225	29
3	9137	2230	30
3	9152	2230	30
3	9169	2235	30
3	9181	2240	31
3	9200	2240	31
3	9217	2245	31
3	9224	2250	32
3	9238	2250	32
3	9253	2255	32
3	9262	2260	33
3	9276	2260	33
3	9294	2265	33
3	9305	2270	34
3	9324	2270	34
3	9346	2275	34
3	9354	2280	35
3	9370	2280	35
3	9383	2285	34
3	9396	2290	35
3	9409	2290	34
3	9430	2295	33
3	9448	2300	34
3	9460	2300	33
3	9479	2305	33
3	9493	2310	34
3	9508	2310	34
3	9528	2315	34
3	9538	2320	35
3	9553	2320	35
3	9569	2325	35
3	9580	2330	36
3	9595	2330	35
3	9615	2335	34
3	9629	2340	35
3	9644	2340	34
3	9665	2345	33
3	9680	2350	34
3	9693	2350	34
3	9712	2355	34
3	9721	2360	35
3	9735	2360	35
3	9746	2365	35
3	9757	2370	36
3	9773	2370	36
3	9795	2375	36
3	9807	2380	37
3	9823	2380	37
3	9840	2385	37
3	9849	2390	38
3	9865	2390	38
3	9882	2395	38
3	9893	2400	39
3	9910	2400	39
3	9926	2405	38
3	9936	2410	39
3	9947	2410	38
3	9963	2415	37
3	9978	2420	38
3	9989	2420	37
3	10009	2425	37
3	10019	2430	38
3	10030	2430	38
3	10043	2435	38
3	10052	2440	39
3	10065	2440	39
3	10083	2445	39
3	10093	2450	40
3	10111	2450	40
3	10132	2455	40
3	10141	2460	41
3	10159	2460	41
3	10180	2465	41
3	10190	2470	42
3	10210	2470	42
3	10229	2475	42
3	10234	2480	43
3	10247	2480	43
3	10262	2485	42
3	10274	2490	43
3	10285	2490	42
3	10303	2495	41
3	10316	2500	42
3	10327	2500	42
3	10348	2505	42
3	10356	2510	43
3	10373	2510	43
3	10390	2515	43
3	10396	2520	44
3	10408	2520	44
3	10426	2525	44
3	10436	2530	45
3	10449	2530	44
3	10467	2535	43
3	10480	2540	44
3	10489	2540	43
3	10508	2545	42
3	10527	2550	43
3	10536	2550	42
3	10557	2555	42
3	10573	2560	43
3	10588	2560	43
3	10606	2565	43
3	10611	2570	44
3	10622	2570	44
3	10634	2575	43
3	10649	2580	44
3	10658	2580	43
3	10674	2585	42
3	10690	2590	43
3	10697	2590	43
3	10720	2595	43
3	10730	2600	44
3	10745	2600	44
3	10768	2605	44
3	10775	2610	45
3	10788	2610	44
3	10806	2615	43
3	10819	2620	44
3	10832	2620	43
3	10851	2625	42
3	10866	2630	43
3	10879	2630	42
3	10900	2635	41
3	10916	2640	42
3	10926	2640	41
3	10941	2645	40
3	10956	2650	41
3	10965	2650	40
3	10982	2655	39
3	10999	2660	40
3	11008	2660	39
3	11028	2665	38
3	11049	2670	39
3	11058	2670	38
3	11080	2675	37
3	11100	2680	38
3	11107	2680	37
3	11127	2685	36
3	11149	2690	37
3	11156	2690	36
3	11174	2695	35
3	11194	2700	36
3	11201	2700	36
3	11226	2705	36
3	11233	2710	37
3	11245	2710	37
3	11261	2715	37
3	11268	2720	38
3	11278	2720	38
3	11291	2725	38
3	11304	2730	39
3	11312	2730	38
3	11328	2735	37
3	11347	2740	38
3	11354	2740	37
3	11369	2745	36
3	11386	2750	37
3	11393	2750	36
3	11410	2755	36
3	11423	2760	37
3	11434	2760	37
3	11453	2765	37
3	11463	2770	38
3	11477	2770	38
3	11485	2775	38
3	11492	2780	39
3	11501	2780	39
3	11510	2785	39
3	11521	2790	40
3	11532	2790	40
3	11546	2795	40
3	11555	2800	41
3	11569	2800	41
3	11590	2805	41
3	11601	2810	42
3	11616	2810	42
3	11629	2815	42
3	11635	2820	43
3	11646	2820	43
3	11660	2825	43
3	11669	2830	44
3	11683	2830	44
3	11704	2835	44
3	11713	2840	45
3	11731	2840	45
3	11750	2845	45
3	11760	2850	46
3	11777	2850	46
3	11790	2855	46
3	11798	2860	47
3	11810	2860	47
3	11823	2865	47
3	11834	2870	48
3	11851	2870	48
3	11871	2875	47
3	11879	2880	48
3	11890	2880	47
3	11907	2885	46
3	11921	2890	47
3	11932	2890	46
3	11949	2895	45
3	11962	2900	46
3	11971	2900	45
3	11988	2905	45
3	12002	2910	46
3	12017	2910	46
3	12032	2915	46
3	12042	2920	47
3	12057	2920	47
3	12075	2925	47
3	12084	2930	48
3	12100	2930	48
3	12118	2935	47
3	12129	2940	48
3	12141	2940	47
3	12155	2945	46
3	12168	2950	47
3	12179	2950	46
3	12197	2955	45
3	12215	2960	46
3	12226	2960	45
3	12249	2965	45
3	12266	2970	46
3	12283	2970	46
3	12300	2975	46
3	12308	2980	47
3	12322	2980	47
3	12338	2985	46
3	12352	2990	47
3	12364	2990	46
3	12380	2995	46
3	12393	3000	47
3	12409	3000	47
3	12427	3005	47
3	12435	3010	48
3	12451	3010	48
3	12468	3015	47
3	12481	3020	48
3	12496	3020	47
3	12516	3025	46
3	12527	3030	47
3	12540	3030	46
3	12556	3035	45
3	12571	3040	46
3	12580	3040	46
3	12604	3045	46
3	12613	3050	47
3	12629	3050	47
3	12646	3055	47
3	12658	3060	48
3	12673	3060	47
3	12695	3065	46
3	12707	3070	47
3	12718	3070	46
3	12735	3075	45
3	12752	3080	46
3	12763	3080	45
3	12787	3085	45
3	12801	3090	46
3	12816	3090	46
3	12833	3095	46
3	12842	3100	47
3	12856	3100	47
3	12876	3105	47
3	12887	3110	48
3	12902	3110	47
3	12922	3115	46
3	12935	3120	47
3	12946	3120	46
3	12964	3125	45
3	12979	3130	46
3	12990	3130	45
3	13009	3135	44
3	13023	3140	45
3	13034	3140	44
3	13053	3145	43
3	13071	3150	44
3	13081	3150	43
3	13093	3155	42
3	13104	3160	43
3	13111	3160	42
3	13123	3165	41
3	13137	3170	42
3	13144	3170	41
3	13157	3175	40
3	13175	3180	41
3	13182	3180	40
3	13199	3185	39
3	13218	3190	40
3	13225	3190	39
3	13245	3195	38
3	13267	3200	39
3	13274	3200	38
3	13291	3205	37
3	13309	3210	38
3	13316	3210	37
3	13334	3215	37
3	13346	3220	38
3	13357	3220	38
3	13374	3225	38
3	13384	3230	39
3	13402	3230	39
3	13421	3235	39
3	13432	3240	40
3	13449	3240	39
3	13471	3245	39
3	13482	3250	40
3	13500	3250	40
3	13519	3255	40
3	13527	3260	41
3	13543	3260	41
3	13560	3265	41
3	13570	3270	42
3	13589	3270	42
3	13608	3275	42
3	13615	3280	43
3	13630	3280	43
3	13645	3285	43
3	13652	3290	44
3	13665	3290	44
3	13684	3295	44
3	13693	3300	45
3	13712	3300	45
3	13731	3305	45
3	13740	3310	46
3	13760	3310	46
3	13781	3315	45
3	13793	3320	46
3	13812	3320	45
3	13833	3325	44
3	13843	3330	45
3	13858	3330	44
3	13875	3335	43
3	13884	3340	44
3	13893	3340	43
3	13907	3345	42
3	13922	3350	43
3	13931	3350	42
3	13950	3355	41
3	13970	3360	42
3	13979	3360	41
3	14001	3365	41
3	14018	3370	42
3	14033	3370	42
3	14044	3375	42
3	14052	3380	43
3	14065	3380	43
3	14078	3385	43
3	14087	3390	44
3	14098	3390	43
3	14113	3395	42
3	14127	3400	43
3	14137	3400	42
3	14153	3405	41
3	14172	3410	42
3	14181	3410	41
3	14202	3415	40
3	14217	3420	41
3	14224	3420	40
3	14239	3425	39
3	14256	3430	40
3	14263	3430	39
3	14281	3435	38
3	14301	3440	39
3	14308	3440	39
3	14334	3445	39
3	14340	3450	40
3	14353	3450	40
3	14370	3455	40
3	14380	3460	41
3	14396	3460	41
3	14417	3465	40
3	14431	3470	41
3	14446	3470	40
3	14469	3475	40
3	14483	3480	41
3	14499	3480	41
3	14515	3485	41
3	14524	3490	42
3	14537	3490	41
3	14555	3495	40
3	14569	3500	41
3	14580	3500	41
3	14595	3505	41
3	14605	3510	42
3	14619	3510	42
3	14636	3515	41
3	14648	3520	42
3	14657	3520	41
3	14675	3525	40
3	14692	3530	41
3	14700	3530	40
3	14713	3535	39
3	14730	3540	40
3	14737	3540	39
3	14756	3545	39
3	14771	3550	40
3	14786	3550	40
3	14804	3555	40
3	14813	3560	41
3	14830	3560	41
3	14845	3565	41
3	14855	3570	42
3	14869	3570	42
3	14886	3575	42
3	14896	3580	43
3	14911	3580	43
3	14926	3585	43
3	14935	3590	44
3	14949	3590	44
3	14962	3595	44
3	14970	3600	45
3	14983	3600	45
4	5	5	0
4	13	10	1
4	22	10	1
4	41	15	1
4	50	20	2
4	59	20	2
4	75	25	2
4	84	30	3
4	97	30	3
4	119	35	3
4	127	40	4
4	141	40	4
4	163	45	3
4	175	50	4
4	183	50	3
4	202	55	2
4	220	60	3
4	226	60	2
4	243	65	1
4	259	70	2
4	265	70	1
4	280	75	1
4	295	80	2
4	305	80	2
4	325	85	2
4	334	90	3
4	344	90	2
4	363	95	1
4	380	100	2
4	388	100	2
4	413	105	2
4	420	110	3
4	432	110	3
4	453	115	3
4	461	120	4
4	474	120	4
4	500	125	4
4	507	130	5
4	517	130	4
4	537	135	3
4	552	140	4
4	562	140	3
4	579	145	2
4	595	150	3
4	604	150	3
4	628	155	3
4	637	160	4
4	653	160	4
4	671	165	3
4	681	170	4
4	689	170	3
4	705	175	3
4	715	180	4
4	724	180	4
4	736	185	4
4	747	190	5
4	755	190	4
4	772	195	3
4	787	200	4
4	795	200	3
4	813	205	3
4	829	210	4
4	843	210	4
4	863	215	4
4	875	220	5
4	893	220	5
4	913	225	5
4	921	230	6
4	933	230	5
4	948	235	4
4	959	240	5
4	967	240	4
4	982	245	4
4	995	250	5
4	1008	250	5
4	1025	255	5
4	1037	260	6
4	1051	260	5
4	1072	265	4
4	1085	270	5
4	1094	270	4
4	1107	275	3
4	1121	280	4
4	1129	280	3
4	1145	285	2
4	1164	290	3
4	1170	290	3
4	1191	295	3
4	1199	300	4
4	1211	300	4
4	1229	305	4
4	1238	310	5
4	1251	310	5
4	1271	315	5
4	1281	320	6
4	1291	320	5
4	1304	325	4
4	1317	330	5
4	1325	330	4
4	1340	335	3
4	1359	340	4
4	1367	340	3
4	1389	345	3
4	1409	350	4
4	1426	350	4
4	1441	355	4
4	1452	360	5
4	1465	360	5
4	1482	365	5
4	1493	370	6
4	1508	370	6
4	1527	375	6
4	1536	380	7
4	1549	380	7
4	1568	385	6
4	1582	390	7
4	1594	390	6
4	1614	395	5
4	1628	400	6
4	1638	400	5
4	1654	405	5
4	1667	410	6
4	1680	410	6
4	1698	415	6
4	1704	420	7
4	1715	420	7
4	1731	425	7
4	1739	430	8
4	1751	430	8
4	1767	435	7
4	1780	440	8
4	1790	440	7
4	1807	445	6
4	1821	450	7
4	1829	450	6
4	1843	455	5
4	1857	460	6
4	1863	460	5
4	1880	465	4
4	1898	470	5
4	1904	470	4
4	1922	475	3
4	1944	480	4
4	1950	480	3
4	1969	485	2
4	1992	490	3
4	1998	490	3
4	2027	495	3
4	2037	500	4
4	2054	500	4
4	2073	505	4
4	2083	510	5
4	2098	510	5
4	2110	515	5
4	2120	520	6
4	2132	520	6
4	2147	525	6
4	2157	530	7
4	2171	530	7
4	2188	535	7
4	2199	540	8
4	2217	540	8
4	2238	545	8
4	2247	550	9
4	2263	550	9
4	2277	555	9
4	2287	560	10
4	2302	560	10
4	2313	565	9
4	2325	570	10
4	2333	570	9
4	2348	575	8
4	2364	580	9
4	2372	580	8
4	2386	585	7
4	2401	590	8
4	2407	590	7
4	2425	595	6
4	2444	600	7
4	2450	600	7
4	2470	605	7
4	2478	610	8
4	2490	610	8
4	2503	615	8
4	2513	620	9
4	2524	620	9
4	2534	625	9
4	2546	630	10
4	2556	630	9
4	2575	635	8
4	2595	640	9
4	2605	640	8
4	2626	645	7
4	2641	650	8
4	2647	650	7
4	2663	655	6
4	2682	660	7
4	2688	660	7
4	2712	665	7
4	2722	670	8
4	2737	670	8
4	2760	675	8
4	2769	680	9
4	2783	680	9
4	2797	685	8
4	2811	690	9
4	2823	690	8
4	2842	695	7
4	2858	700	8
4	2869	700	7
4	2885	705	6
4	2900	710	7
4	2908	710	7
4	2926	715	7
4	2934	720	8
4	2947	720	8
4	2962	725	8
4	2972	730	9
4	2987	730	9
4	3007	735	9
4	3017	740	10
4	3030	740	10
4	3049	745	10
4	3055	750	11
4	3065	750	11
4	3082	755	11
4	3089	760	12
4	3099	760	12
4	3111	765	11
4	3128	770	12
4	3136	770	11
4	3155	775	10
4	3174	780	11
4	3182	780	10
4	3200	785	9
4	3217	790	10
4	3223	790	9
4	3240	795	8
4	3258	800	9
4	3264	800	9
4	3286	805	9
4	3294	810	10
4	3306	810	10
4	3324	815	10
4	3335	820	11
4	3347	820	10
4	3368	825	10
4	3383	830	11
4	3395	830	11
4	3410	835	11
4	3420	840	12
4	3433	840	12
4	3454	845	12
4	3464	850	13
4	3480	850	13
4	3500	855	12
4	3513	860	13
4	3529	860	12
4	3549	865	11
4	3563	870	12
4	3575	870	11
4	3595	875	10
4	3610	880	11
4	3620	880	10
4	3640	885	9
4	3659	890	10
4	3669	890	9
4	3689	895	8
4	3707	900	9
4	3715	900	9
4	3740	905	9
4	3750	910	10
4	3765	910	10
4	3776	915	10
4	3784	920	11
4	3790	920	10
4	3803	925	9
4	3822	930	10
4	3828	930	9
4	3848	935	8
4	3871	940	9
4	3877	940	8
4	3896	945	8
4	3911	950	9
4	3923	950	9
4	3939	955	9
4	3949	960	10
4	3960	960	10
4	3975	965	10
4	3985	970	11
4	4002	970	11
4	4019	975	11
4	4027	980	12
4	4042	980	12
4	4059	985	12
4	4071	990	13
4	4085	990	13
4	4098	995	13
4	4105	1000	14
4	4113	1000	13
4	4129	1005	13
4	4144	1010	14
4	4158	1010	14
4	4174	1015	14
4	4181	1020	15
4	4194	1020	15
4	4207	1025	15
4	4216	1030	16
4	4230	1030	16
4	4246	1035	16
4	4260	1040	17
4	4277	1040	17
4	4298	1045	17
4	4309	1050	18
4	4325	1050	18
4	4341	1055	18
4	4352	1060	19
4	4366	1060	18
4	4384	1065	18
4	4395	1070	19
4	4408	1070	19
4	4423	1075	19
4	4435	1080	20
4	4447	1080	19
4	4466	1085	19
4	4478	1090	20
4	4492	1090	20
4	4507	1095	20
4	4517	1100	21
4	4530	1100	21
4	4545	1105	21
4	4556	1110	22
4	4571	1110	22
4	4585	1115	21
4	4600	1120	22
4	4611	1120	22
4	4628	1125	22
4	4638	1130	23
4	4651	1130	23
4	4669	1135	23
4	4679	1140	24
4	4693	1140	24
4	4712	1145	23
4	4728	1150	24
4	4739	1150	23
4	4751	1155	22
4	4766	1160	23
4	4774	1160	22
4	4788	1165	21
4	4800	1170	22
4	4806	1170	21
4	4821	1175	20
4	4838	1180	21
4	4844	1180	20
4	4859	1185	19
4	4877	1190	20
4	4883	1190	20
4	4907	1195	20
4	4916	1200	21
4	4929	1200	21
4	4944	1205	21
4	4955	1210	22
4	4968	1210	22
4	4981	1215	22
4	4995	1220	23
4	5004	1220	22
4	5013	1225	21
4	5028	1230	22
4	5034	1230	21
4	5048	1235	20
4	5067	1240	21
4	5073	1240	20
4	5089	1245	19
4	5108	1250	20
4	5114	1250	19
4	5132	1255	19
4	5150	1260	20
4	5164	1260	20
4	5177	1265	20
4	5188	1270	21
4	5200	1270	21
4	5212	1275	20
4	5225	1280	21
4	5235	1280	20
4	5251	1285	19
4	5267	1290	20
4	5277	1290	19
4	5296	1295	18
4	5315	1300	19
4	5325	1300	18
4	5346	1305	18
4	5361	1310	19
4	5376	1310	19
4	5389	1315	19
4	5396	1320	20
4	5408	1320	20
4	5423	1325	19
4	5437	1330	20
4	5449	1330	19
4	5468	1335	18
4	5485	1340	19
4	5493	1340	18
4	5512	1345	18
4	5527	1350	19
4	5542	1350	19
4	5559	1355	19
4	5568	1360	20
4	5584	1360	20
4	5600	1365	19
4	5611	1370	20
4	5621	1370	19
4	5636	1375	19
4	5647	1380	20
4	5659	1380	20
4	5673	1385	20
4	5681	1390	21
4	5693	1390	21
4	5705	1395	20
4	5719	1400	21
4	5729	1400	20
4	5746	1405	20
4	5760	1410	21
4	5773	1410	21
4	5790	1415	21
4	5802	1420	22
4	5816	1420	22
4	5830	1425	22
4	5840	1430	23
4	5853	1430	23
4	5870	1435	22
4	5888	1440	23
4	5900	1440	22
4	5921	1445	21
4	5937	1450	22
4	5943	1450	22
4	5963	1455	22
4	5972	1460	23
4	5986	1460	23
4	6007	1465	23
4	6016	1470	24
4	6030	1470	23
4	6048	1475	22
4	6062	1480	23
4	6072	1480	22
4	6091	1485	21
4	6108	1490	22
4	6118	1490	21
4	6134	1495	20
4	6149	1500	21
4	6159	1500	20
4	6178	1505	19
4	6199	1510	20
4	6209	1510	19
4	6230	1515	18
4	6249	1520	19
4	6259	1520	18
4	6278	1525	18
4	6292	1530	19
4	6306	1530	19
4	6321	1535	19
4	6332	1540	20
4	6347	1540	20
4	6360	1545	19
4	6374	1550	20
4	6386	1550	19
4	6405	1555	19
4	6416	1560	20
4	6427	1560	20
4	6440	1565	20
4	6451	1570	21
4	6462	1570	21
4	6477	1575	21
4	6489	1580	22
4	6504	1580	22
4	6517	1585	21
4	6530	1590	22
4	6541	1590	22
4	6558	1595	22
4	6566	1600	23
4	6577	1600	23
4	6590	1605	23
4	6600	1610	24
4	6611	1610	24
4	6627	1615	24
4	6640	1620	25
4	6653	1620	25
4	6672	1625	25
4	6681	1630	26
4	6694	1630	26
4	6712	1635	26
4	6725	1640	27
4	6737	1640	26
4	6753	1645	26
4	6768	1650	27
4	6781	1650	27
4	6795	1655	27
4	6806	1660	28
4	6818	1660	27
4	6836	1665	26
4	6854	1670	27
4	6865	1670	26
4	6884	1675	25
4	6900	1680	26
4	6908	1680	25
4	6925	1685	24
4	6943	1690	25
4	6951	1690	24
4	6971	1695	24
4	6989	1700	25
4	7004	1700	25
4	7020	1705	25
4	7030	1710	26
4	7043	1710	26
4	7057	1715	26
4	7068	1720	27
4	7078	1720	26
4	7096	1725	25
4	7108	1730	26
4	7116	1730	25
4	7129	1735	24
4	7146	1740	25
4	7154	1740	24
4	7176	1745	24
4	7196	1750	25
4	7213	1750	25
4	7229	1755	25
4	7238	1760	26
4	7254	1760	26
4	7276	1765	26
4	7285	1770	27
4	7299	1770	27
4	7313	1775	26
4	7327	1780	27
4	7339	1780	26
4	7356	1785	25
4	7370	1790	26
4	7378	1790	25
4	7396	1795	24
4	7416	1800	25
4	7422	1800	24
4	7443	1805	23
4	7460	1810	24
4	7466	1810	23
4	7481	1815	22
4	7498	1820	23
4	7504	1820	23
4	7519	1825	23
4	7528	1830	24
4	7538	1830	24
4	7553	1835	24
4	7561	1840	25
4	7573	1840	25
4	7586	1845	25
4	7598	1850	26
4	7610	1850	25
4	7629	1855	25
4	7639	1860	26
4	7650	1860	26
4	7663	1865	26
4	7673	1870	27
4	7684	1870	27
4	7697	1875	26
4	7711	1880	27
4	7721	1880	26
4	7741	1885	26
4	7754	1890	27
4	7767	1890	27
4	7782	1895	27
4	7793	1900	28
4	7804	1900	28
4	7818	1905	28
4	7827	1910	29
4	7840	1910	29
4	7858	1915	28
4	7873	1920	29
4	7884	1920	28
4	7899	1925	28
4	7909	1930	29
4	7918	1930	29
4	7929	1935	29
4	7939	1940	30
4	7951	1940	30
4	7966	1945	29
4	7981	1950	30
4	7990	1950	29
4	8008	1955	28
4	8028	1960	29
4	8036	1960	28
4	8056	1965	28
4	8073	1970	29
4	8086	1970	29
4	8101	1975	29
4	8110	1980	30
4	8124	1980	30
4	8141	1985	30
4	8151	1990	31
4	8164	1990	31
4	8173	1995	30
4	8187	2000	31
4	8193	2000	30
4	8210	2005	29
4	8231	2010	30
4	8237	2010	29
4	8258	2015	29
4	8279	2020	30
4	8295	2020	30
4	8311	2025	30
4	8321	2030	31
4	8334	2030	31
4	8349	2035	31
4	8360	2040	32
4	8372	2040	31
4	8391	2045	30
4	8406	2050	31
4	8416	2050	31
4	8433	2055	31
4	8445	2060	32
4	8460	2060	32
4	8474	2065	31
4	8485	2070	32
4	8495	2070	31
4	8510	2075	30
4	8524	2080	31
4	8534	2080	30
4	8551	2085	29
4	8565	2090	30
4	8573	2090	29
4	8589	2095	29
4	8606	2100	30
4	8618	2100	30
4	8630	2105	30
4	8642	2110	31
4	8657	2110	31
4	8672	2115	30
4	8685	2120	31
4	8695	2120	31
4	8715	2125	31
4	8722	2130	32
4	8734	2130	32
4	8750	2135	32
4	8760	2140	33
4	8776	2140	33
4	8792	2145	32
4	8806	2150	33
4	8819	2150	33
4	8839	2155	33
4	8849	2160	34
4	8864	2160	34
4	8879	2165	34
4	8889	2170	35
4	8907	2170	35
4	8925	2175	35
4	8933	2180	36
4	8947	2180	36
4	8962	2185	36
4	8972	2190	37
4	8986	2190	37
4	8996	2195	36
4	9009	2200	37
4	9019	2200	36
4	9038	2205	35
4	9059	2210	36
4	9067	2210	35
4	9080	2215	34
4	9097	2220	35
4	9103	2220	34
4	9119	2225	33
4	9138	2230	34
4	9144	2230	33
4	9162	2235	33
4	9182	2240	34
4	9201	2240	34
4	9218	2245	34
4	9225	2250	35
4	9235	2250	34
4	9250	2255	33
4	9263	2260	34
4	9273	2260	33
4	9289	2265	32
4	9306	2270	33
4	9316	2270	32
4	9337	2275	32
4	9355	2280	33
4	9371	2280	33
4	9387	2285	33
4	9397	2290	34
4	9414	2290	34
4	9438	2295	34
4	9449	2300	35
4	9467	2300	35
4	9484	2305	35
4	9494	2310	36
4	9509	2310	36
4	9529	2315	36
4	9539	2320	37
4	9554	2320	37
4	9570	2325	37
4	9581	2330	38
4	9597	2330	38
4	9619	2335	38
4	9630	2340	39
4	9648	2340	39
4	9669	2345	39
4	9681	2350	40
4	9697	2350	40
4	9709	2355	39
4	9722	2360	40
4	9733	2360	40
4	9747	2365	40
4	9758	2370	41
4	9774	2370	41
4	9793	2375	40
4	9808	2380	41
4	9821	2380	40
4	9835	2385	39
4	9850	2390	40
4	9860	2390	39
4	9877	2395	38
4	9894	2400	39
4	9904	2400	39
4	9929	2405	39
4	9937	2410	40
4	9950	2410	40
4	9967	2415	40
4	9979	2420	41
4	9996	2420	41
4	10014	2425	41
4	10020	2430	42
4	10031	2430	42
4	10044	2435	42
4	10053	2440	43
4	10066	2440	43
4	10084	2445	43
4	10094	2450	44
4	10112	2450	44
4	10133	2455	44
4	10142	2460	45
4	10156	2460	44
4	10176	2465	43
4	10191	2470	44
4	10205	2470	43
4	10224	2475	42
4	10235	2480	43
4	10243	2480	42
4	10258	2485	41
4	10275	2490	42
4	10283	2490	41
4	10301	2495	40
4	10317	2500	41
4	10325	2500	40
4	10340	2505	39
4	10357	2510	40
4	10365	2510	39
4	10383	2515	39
4	10397	2520	40
4	10409	2520	40
4	10427	2525	40
4	10437	2530	41
4	10451	2530	41
4	10472	2535	41
4	10481	2540	42
4	10491	2540	41
4	10510	2545	40
4	10528	2550	41
4	10538	2550	40
4	10558	2555	39
4	10574	2560	40
4	10582	2560	39
4	10600	2565	39
4	10612	2570	40
4	10623	2570	40
4	10642	2575	40
4	10650	2580	41
4	10664	2580	41
4	10683	2585	41
4	10691	2590	42
4	10701	2590	41
4	10714	2595	40
4	10731	2600	41
4	10739	2600	40
4	10758	2605	40
4	10776	2610	41
4	10792	2610	41
4	10812	2615	41
4	10820	2620	42
4	10836	2620	42
4	10858	2625	42
4	10867	2630	43
4	10884	2630	43
4	10906	2635	43
4	10917	2640	44
4	10931	2640	44
4	10948	2645	44
4	10957	2650	45
4	10970	2650	45
4	10991	2655	45
4	11000	2660	46
4	11012	2660	45
4	11032	2665	44
4	11050	2670	45
4	11062	2670	44
4	11084	2675	43
4	11101	2680	44
4	11111	2680	43
4	11131	2685	42
4	11150	2690	43
4	11160	2690	43
4	11184	2695	43
4	11195	2700	44
4	11210	2700	44
4	11225	2705	44
4	11234	2710	45
4	11246	2710	45
4	11262	2715	45
4	11269	2720	46
4	11279	2720	46
4	11292	2725	46
4	11305	2730	47
4	11314	2730	46
4	11330	2735	45
4	11348	2740	46
4	11356	2740	46
4	11378	2745	46
4	11387	2750	47
4	11401	2750	47
4	11417	2755	47
4	11424	2760	48
4	11435	2760	48
4	11454	2765	48
4	11464	2770	49
4	11475	2770	49
4	11486	2775	49
4	11493	2780	50
4	11502	2780	50
4	11514	2785	50
4	11522	2790	51
4	11533	2790	51
4	11547	2795	51
4	11556	2800	52
4	11570	2800	52
4	11585	2805	51
4	11602	2810	52
4	11612	2810	51
4	11625	2815	51
4	11636	2820	52
4	11647	2820	52
4	11661	2825	52
4	11670	2830	53
4	11684	2830	53
4	11699	2835	52
4	11714	2840	53
4	11726	2840	52
4	11745	2845	51
4	11761	2850	52
4	11771	2850	51
4	11786	2855	51
4	11799	2860	52
4	11811	2860	52
4	11824	2865	52
4	11835	2870	53
4	11843	2870	52
4	11863	2875	52
4	11880	2880	53
4	11893	2880	53
4	11913	2885	53
4	11922	2890	54
4	11935	2890	54
4	11954	2895	54
4	11963	2900	55
4	11973	2900	54
4	11989	2905	53
4	12003	2910	54
4	12011	2910	53
4	12027	2915	53
4	12043	2920	54
4	12058	2920	54
4	12076	2925	54
4	12085	2930	55
4	12095	2930	54
4	12114	2935	54
4	12130	2940	55
4	12145	2940	55
4	12159	2945	55
4	12169	2950	56
4	12185	2950	56
4	12204	2955	56
4	12216	2960	57
4	12236	2960	57
4	12257	2965	56
4	12267	2970	57
4	12281	2970	56
4	12298	2975	55
4	12309	2980	56
4	12319	2980	55
4	12336	2985	54
4	12353	2990	55
4	12362	2990	54
4	12378	2995	53
4	12394	3000	54
4	12402	3000	53
4	12419	3005	52
4	12436	3010	53
4	12442	3010	52
4	12460	3015	51
4	12482	3020	52
4	12488	3020	51
4	12509	3025	50
4	12528	3030	51
4	12534	3030	50
4	12552	3035	50
4	12572	3040	51
4	12589	3040	51
4	12605	3045	51
4	12614	3050	52
4	12630	3050	52
4	12647	3055	52
4	12659	3060	53
4	12675	3060	52
4	12697	3065	52
4	12708	3070	53
4	12723	3070	53
4	12740	3075	53
4	12753	3080	54
4	12769	3080	53
4	12791	3085	53
4	12802	3090	54
4	12817	3090	54
4	12834	3095	54
4	12843	3100	55
4	12857	3100	55
4	12877	3105	55
4	12888	3110	56
4	12904	3110	55
4	12924	3115	54
4	12936	3120	55
4	12948	3120	54
4	12966	3125	53
4	12980	3130	54
4	12992	3130	53
4	13011	3135	53
4	13024	3140	54
4	13039	3140	54
4	13061	3145	54
4	13072	3150	55
4	13085	3150	55
4	13096	3155	55
4	13105	3160	56
4	13115	3160	56
4	13129	3165	56
4	13138	3170	57
4	13150	3170	57
4	13163	3175	57
4	13176	3180	58
4	13192	3180	58
4	13208	3185	58
4	13219	3190	59
4	13233	3190	58
4	13253	3195	57
4	13268	3200	58
4	13281	3200	58
4	13301	3205	58
4	13310	3210	59
4	13326	3210	59
4	13341	3215	59
4	13347	3220	60
4	13358	3220	60
4	13368	3225	59
4	13385	3230	60
4	13393	3230	59
4	13412	3235	58
4	13433	3240	59
4	13441	3240	58
4	13464	3245	57
4	13483	3250	58
4	13491	3250	57
4	13511	3255	56
4	13528	3260	57
4	13536	3260	56
4	13553	3265	55
4	13571	3270	56
4	13579	3270	55
4	13600	3275	55
4	13616	3280	56
4	13631	3280	56
4	13646	3285	56
4	13653	3290	57
4	13666	3290	57
4	13678	3295	56
4	13694	3300	57
4	13704	3300	56
4	13723	3305	55
4	13741	3310	56
4	13751	3310	55
4	13773	3315	54
4	13794	3320	55
4	13804	3320	54
4	13825	3325	53
4	13844	3330	54
4	13850	3330	53
4	13869	3335	53
4	13885	3340	54
4	13897	3340	54
4	13912	3345	54
4	13923	3350	55
4	13939	3350	55
4	13961	3355	55
4	13971	3360	56
4	13987	3360	55
4	14007	3365	54
4	14019	3370	55
4	14029	3370	54
4	14040	3375	53
4	14053	3380	54
4	14059	3380	53
4	14072	3385	52
4	14088	3390	53
4	14094	3390	52
4	14109	3395	51
4	14128	3400	52
4	14134	3400	52
4	14162	3405	52
4	14173	3410	53
4	14191	3410	53
4	14211	3415	53
4	14218	3420	54
4	14230	3420	54
4	14245	3425	54
4	14257	3430	55
4	14269	3430	54
4	14287	3435	53
4	14302	3440	54
4	14310	3440	53
4	14325	3445	52
4	14341	3450	53
4	14347	3450	52
4	14362	3455	51
4	14381	3460	52
4	14387	3460	51
4	14407	3465	50
4	14432	3470	51
4	14438	3470	50
4	14462	3475	49
4	14484	3480	50
4	14490	3480	49
4	14506	3485	48
4	14525	3490	49
4	14531	3490	48
4	14549	3495	47
4	14570	3500	48
4	14576	3500	48
4	14596	3505	48
4	14606	3510	49
4	14620	3510	49
4	14638	3515	48
4	14649	3520	49
4	14659	3520	48
4	14677	3525	47
4	14693	3530	48
4	14702	3530	47
4	14715	3535	46
4	14731	3540	47
4	14739	3540	46
4	14757	3545	45
4	14772	3550	46
4	14778	3550	45
4	14794	3555	44
4	14814	3560	45
4	14820	3560	44
4	14836	3565	43
4	14856	3570	44
4	14862	3570	43
4	14878	3575	42
4	14897	3580	43
4	14903	3580	42
4	14920	3585	41
4	14936	3590	42
4	14942	3590	41
4	14957	3595	41
4	14971	3600	42
4	14984	3600	42
5	6	5	0
5	14	10	1
5	23	10	1
5	42	15	1
5	51	20	2
5	60	20	2
5	76	25	2
5	85	30	3
5	90	30	2
5	107	35	1
5	128	40	2
5	133	40	1
5	153	45	0
5	176	50	1
5	189	50	1
5	210	55	0
5	221	60	1
5	233	60	1
5	249	65	0
5	260	70	1
5	270	70	1
5	285	75	1
5	296	80	2
5	306	80	2
5	326	85	2
5	335	90	3
5	346	90	2
5	365	95	1
5	381	100	2
5	389	100	1
5	404	105	0
5	421	110	1
5	433	110	1
5	448	115	0
5	462	120	1
5	475	120	1
5	494	125	0
5	508	130	1
5	521	130	1
5	542	135	0
5	553	140	1
5	566	140	1
5	583	145	0
5	596	150	1
5	608	150	1
5	623	155	0
5	638	160	1
5	654	160	1
5	673	165	0
5	682	170	1
5	694	170	1
5	709	175	1
5	716	180	2
5	725	180	2
5	737	185	2
5	748	190	3
5	757	190	2
5	774	195	2
5	788	200	3
5	803	200	3
5	820	205	3
5	830	210	4
5	844	210	4
5	861	215	3
5	876	220	4
5	887	220	3
5	907	225	2
5	922	230	3
5	929	230	2
5	945	235	2
5	960	240	3
5	972	240	3
5	989	245	3
5	996	250	4
5	1009	250	4
5	1026	255	4
5	1038	260	5
5	1053	260	4
5	1074	265	4
5	1086	270	5
5	1098	270	5
5	1113	275	5
5	1122	280	6
5	1133	280	6
5	1149	285	5
5	1165	290	6
5	1172	290	5
5	1183	295	4
5	1200	300	5
5	1205	300	4
5	1220	305	3
5	1239	310	4
5	1244	310	3
5	1261	315	2
5	1282	320	3
5	1287	320	3
5	1309	325	3
5	1318	330	4
5	1329	330	4
5	1347	335	4
5	1360	340	5
5	1375	340	4
5	1395	345	3
5	1410	350	4
5	1420	350	3
5	1436	355	2
5	1453	360	3
5	1460	360	2
5	1476	365	1
5	1494	370	2
5	1501	370	1
5	1519	375	0
5	1537	380	1
5	1550	380	1
5	1570	385	0
5	1583	390	1
5	1599	390	1
5	1619	395	0
5	1629	400	1
5	1642	400	1
5	1657	405	0
5	1668	410	1
5	1681	410	1
5	1695	415	0
5	1705	420	1
5	1716	420	1
5	1727	425	0
5	1740	430	1
5	1752	430	1
5	1769	435	0
5	1781	440	1
5	1794	440	1
5	1811	445	0
5	1822	450	1
5	1834	450	1
5	1846	455	1
5	1858	460	2
5	1871	460	2
5	1889	465	2
5	1899	470	3
5	1910	470	2
5	1928	475	1
5	1945	480	2
5	1956	480	2
5	1981	485	2
5	1993	490	3
5	2008	490	3
5	2028	495	3
5	2038	500	4
5	2055	500	4
5	2074	505	4
5	2084	510	5
5	2096	510	5
5	2112	515	5
5	2121	520	6
5	2133	520	6
5	2148	525	6
5	2158	530	7
5	2167	530	6
5	2183	535	5
5	2200	540	6
5	2209	540	5
5	2230	545	4
5	2248	550	5
5	2255	550	4
5	2268	555	3
5	2288	560	4
5	2293	560	4
5	2317	565	4
5	2326	570	5
5	2339	570	5
5	2354	575	5
5	2365	580	6
5	2378	580	6
5	2388	585	5
5	2402	590	6
5	2409	590	5
5	2427	595	4
5	2445	600	5
[...]
38	1844	455	1
38	1864	460	1
38	1881	465	1
38	1905	470	1
38	1923	475	1
38	1951	480	1
38	1970	485	1
38	2314	565	1
38	2334	570	1
38	2349	575	1
38	2373	580	1
38	2387	585	1
38	2408	590	1
38	2426	595	1
38	2557	630	1
38	2576	635	1
38	2606	640	1
38	2627	645	1
38	2648	650	1
38	2664	655	1
38	2798	685	1
38	2824	690	1
38	2843	695	1
38	2870	700	1
38	2886	705	1
38	3112	765	1
38	3137	770	1
38	3156	775	1
38	3183	780	1
38	3201	785	1
38	3224	790	1
38	3241	795	1
38	3348	820	1
38	3501	855	1
38	3530	860	1
38	3550	865	1
38	3576	870	1
38	3596	875	1
38	3621	880	1
38	3641	885	1
38	3670	890	1
38	3690	895	1
38	3791	920	1
38	3804	925	1
38	3829	930	1
38	3849	935	1
38	3878	940	1
38	4114	1000	1
38	4367	1060	1
38	4448	1080	1
38	4586	1115	1
38	4713	1145	1
38	4740	1150	1
38	4752	1155	1
38	4775	1160	1
38	4789	1165	1
38	4807	1170	1
38	4822	1175	1
38	4845	1180	1
38	4860	1185	1
38	5005	1220	1
38	5014	1225	1
38	5035	1230	1
38	5049	1235	1
38	5074	1240	1
38	5090	1245	1
38	5115	1250	1
38	5213	1275	1
38	5236	1280	1
38	5252	1285	1
38	5278	1290	1
38	5297	1295	1
38	5326	1300	1
38	5424	1325	1
38	5450	1330	1
38	5469	1335	1
38	5494	1340	1
38	5601	1365	1
38	5622	1370	1
38	5706	1395	1
38	5730	1400	1
38	5871	1435	1
38	5901	1440	1
38	5922	1445	1
38	6031	1470	1
38	6049	1475	1
38	6073	1480	1
38	6092	1485	1
38	6119	1490	1
38	6135	1495	1
38	6160	1500	1
38	6179	1505	1
38	6210	1510	1
38	6231	1515	1
38	6260	1520	1
38	6361	1545	1
38	6387	1550	1
38	6518	1585	1
38	6738	1640	1
38	6819	1660	1
38	6837	1665	1
38	6866	1670	1
38	6885	1675	1
38	6909	1680	1
38	6926	1685	1
38	6952	1690	1
38	7079	1720	1
38	7097	1725	1
38	7117	1730	1
38	7130	1735	1
38	7155	1740	1
38	7314	1775	1
38	7340	1780	1
38	7357	1785	1
38	7379	1790	1
38	7397	1795	1
38	7423	1800	1
38	7444	1805	1
38	7467	1810	1
38	7482	1815	1
38	7611	1850	1
38	7698	1875	1
38	7722	1880	1
38	7859	1915	1
38	7885	1920	1
38	7967	1945	1
38	7991	1950	1
38	8009	1955	1
38	8037	1960	1
38	8174	1995	1
38	8194	2000	1
38	8211	2005	1
38	8238	2010	1
38	8373	2040	1
38	8392	2045	1
38	8475	2065	1
38	8496	2070	1
38	8511	2075	1
38	8535	2080	1
38	8552	2085	1
38	8574	2090	1
38	8673	2115	1
38	8793	2145	1
38	8997	2195	1
38	9020	2200	1
38	9039	2205	1
38	9068	2210	1
38	9081	2215	1
38	9104	2220	1
38	9120	2225	1
38	9145	2230	1
38	9236	2250	1
38	9251	2255	1
38	9274	2260	1
38	9290	2265	1
38	9317	2270	1
38	9710	2355	1
38	9794	2375	1
38	9822	2380	1
38	9836	2385	1
38	9861	2390	1
38	9878	2395	1
38	10157	2460	1
38	10177	2465	1
38	10206	2470	1
38	10225	2475	1
38	10244	2480	1
38	10259	2485	1
38	10284	2490	1
38	10302	2495	1
38	10326	2500	1
38	10341	2505	1
38	10366	2510	1
38	10492	2540	1
38	10511	2545	1
38	10539	2550	1
38	10559	2555	1
38	10583	2560	1
38	10702	2590	1
38	10715	2595	1
38	10740	2600	1
38	11013	2660	1
38	11033	2665	1
38	11063	2670	1
38	11085	2675	1
38	11112	2680	1
38	11132	2685	1
38	11315	2730	1
38	11331	2735	1
38	11586	2805	1
38	11613	2810	1
38	11700	2835	1
38	11727	2840	1
38	11746	2845	1
38	11772	2850	1
38	11844	2870	1
38	11974	2900	1
38	11990	2905	1
38	12012	2910	1
38	12096	2930	1
38	12258	2965	1
38	12282	2970	1
38	12299	2975	1
38	12320	2980	1
38	12337	2985	1
38	12363	2990	1
38	12379	2995	1
38	12403	3000	1
38	12420	3005	1
38	12443	3010	1
38	12461	3015	1
38	12489	3020	1
38	12510	3025	1
38	12535	3030	1
38	12676	3060	1
38	12770	3080	1
38	12905	3110	1
38	12925	3115	1
38	12949	3120	1
38	12967	3125	1
38	12993	3130	1
38	13234	3190	1
38	13254	3195	1
38	13369	3225	1
38	13394	3230	1
38	13413	3235	1
38	13442	3240	1
38	13465	3245	1
38	13492	3250	1
38	13512	3255	1
38	13537	3260	1
38	13554	3265	1
38	13580	3270	1
38	13679	3295	1
38	13705	3300	1
38	13724	3305	1
38	13752	3310	1
38	13774	3315	1
38	13805	3320	1
38	13826	3325	1
38	13851	3330	1
38	13988	3360	1
38	14008	3365	1
38	14030	3370	1
38	14041	3375	1
38	14060	3380	1
38	14073	3385	1
38	14095	3390	1
38	14110	3395	1
38	14270	3430	1
38	14288	3435	1
38	14311	3440	1
38	14326	3445	1
38	14348	3450	1
38	14363	3455	1
38	14388	3460	1
38	14408	3465	1
38	14439	3470	1
38	14463	3475	1
38	14491	3480	1
38	14507	3485	1
38	14532	3490	1
38	14550	3495	1
38	14639	3515	1
38	14660	3520	1
38	14678	3525	1
38	14703	3530	1
38	14716	3535	1
38	14740	3540	1
38	14758	3545	1
38	14779	3550	1
38	14795	3555	1
38	14821	3560	1
38	14837	3565	1
38	14863	3570	1
38	14879	3575	1
38	14904	3580	1
38	14921	3585	1
38	14943	3590	1
39	166	45	1
39	186	50	1
39	205	55	1
39	229	60	1
39	321	85	1
39	343	90	1
39	362	95	1
39	387	100	1
39	403	105	1
39	427	110	1
39	443	115	1
39	497	125	1
39	650	160	1
39	668	165	1
39	688	170	1
39	800	200	1
39	892	220	1
39	911	225	1
39	932	230	1
39	947	235	1
39	966	240	1
39	981	245	1
39	1002	250	1
39	1017	255	1
39	1044	260	1
39	1066	265	1
39	1110	275	1
39	1152	285	1
39	1188	295	1
39	1227	305	1
39	1270	315	1
39	1398	345	1
39	1423	350	1
39	1439	355	1
39	1597	390	1
39	1676	410	1
39	1691	415	1
39	1711	420	1
39	1724	425	1
39	1746	430	1
39	1762	435	1
39	1787	440	1
39	1805	445	1
39	1828	450	1
39	1931	475	1
39	2025	495	1
39	2052	500	1
39	2071	505	1
39	2212	540	1
39	2233	545	1
39	2258	550	1
39	2271	555	1
39	2295	560	1
39	2310	565	1
39	2332	570	1
39	2347	575	1
39	2371	580	1
39	2385	585	1
39	2432	595	1
39	2582	635	1
39	2612	640	1
39	2710	665	1
39	2735	670	1
39	2826	690	1
39	2845	695	1
39	2872	700	1
39	2888	705	1
39	2910	710	1
39	2922	715	1
39	2943	720	1
39	2957	725	1
39	2981	730	1
39	2999	735	1
39	3047	745	1
39	3079	755	1
39	3116	765	1
39	3164	775	1
39	3208	785	1
39	3247	795	1
39	3283	805	1
39	3322	815	1
39	3375	825	1
39	3408	835	1
39	3580	870	1
39	3722	900	1
39	3737	905	1
39	3837	930	1
39	3857	935	1
39	3884	940	1
39	3900	945	1
39	3920	950	1
39	3934	955	1
39	3957	960	1
39	3969	965	1
39	3992	970	1
39	4084	990	1
39	4190	1020	1
39	4203	1025	1
39	4225	1030	1
39	4243	1035	1
39	4269	1040	1
39	4289	1045	1
39	4318	1050	1
39	4335	1055	1
39	4361	1060	1
39	4905	1195	1
39	4927	1200	1
39	4942	1205	1
39	5016	1225	1
39	5037	1230	1
39	5051	1235	1
39	5076	1240	1
39	5092	1245	1
39	5117	1250	1
39	5134	1255	1
39	5157	1260	1
39	5171	1265	1
39	5334	1300	1
39	5353	1305	1
39	5372	1310	1
39	5475	1335	1
39	5500	1340	1
39	5517	1345	1
39	5538	1350	1
39	5554	1355	1
39	5579	1360	1
39	5656	1380	1
39	5669	1385	1
39	5688	1390	1
39	5702	1395	1
39	5726	1400	1
39	5929	1445	1
39	5948	1450	1
39	5959	1455	1
39	5981	1460	1
39	5999	1465	1
39	6025	1470	1
39	6045	1475	1
39	6071	1480	1
39	6090	1485	1
39	6117	1490	1
39	6133	1495	1
39	6158	1500	1
39	6177	1505	1
39	6208	1510	1
39	6229	1515	1
39	6258	1520	1
39	6389	1550	1
39	6625	1615	1
39	6742	1640	1
39	6757	1645	1
39	6839	1665	1
39	6868	1670	1
39	6958	1690	1
39	7081	1720	1
39	7161	1740	1
39	7182	1745	1
39	7207	1750	1
39	7222	1755	1
39	7247	1760	1
39	7570	1840	1
39	7583	1845	1
39	7607	1850	1
39	7836	1910	1
39	7853	1915	1
39	7994	1950	1
39	8011	1955	1
39	8039	1960	1
39	8058	1965	1
39	8081	1970	1
39	8094	1975	1
39	8117	1980	1
39	8133	1985	1
39	8248	2010	1
39	8267	2015	1
39	8291	2020	1
39	8307	2025	1
39	8331	2030	1
39	8344	2035	1
39	8369	2040	1
39	8389	2045	1
39	8415	2050	1
39	8429	2055	1
39	8537	2080	1
39	8653	2110	1
39	8669	2115	1
39	8692	2120	1
39	8773	2140	1
39	8791	2145	1
39	8818	2150	1
39	8834	2155	1
39	8859	2160	1
39	8873	2165	1
39	8898	2170	1
39	8919	2175	1
39	8942	2180	1
39	8957	2185	1
39	8981	2190	1
39	8995	2195	1
39	9018	2200	1
39	9037	2205	1
39	9197	2240	1
39	9215	2245	1
39	9234	2250	1
39	9249	2255	1
39	9272	2260	1
39	9288	2265	1
39	9315	2270	1
39	9336	2275	1
39	9362	2280	1
39	9378	2285	1
39	9404	2290	1
39	9425	2295	1
39	9456	2300	1
39	9476	2305	1
39	9501	2310	1
39	9519	2315	1
39	9546	2320	1
39	9562	2325	1
39	9588	2330	1
39	9608	2335	1
39	9637	2340	1
39	9658	2345	1
39	9688	2350	1
39	9704	2355	1
39	9729	2360	1
39	9742	2365	1
39	9765	2370	1
39	9784	2375	1
39	9815	2380	1
39	9832	2385	1
39	9857	2390	1
39	9874	2395	1
39	9901	2400	1
39	9994	2420	1
39	10062	2440	1
39	10077	2445	1
39	10103	2450	1
39	10124	2455	1
39	10151	2460	1
39	10171	2465	1
39	10200	2470	1
39	10221	2475	1
39	10242	2480	1
39	10257	2485	1
39	10282	2490	1
39	10300	2495	1
39	10324	2500	1
39	10339	2505	1
39	10364	2510	1
39	10382	2515	1
39	10425	2525	1
39	10471	2535	1
39	10517	2545	1
39	10566	2555	1
39	10605	2565	1
39	10639	2575	1
39	10678	2585	1
39	10719	2595	1
39	10765	2605	1
39	10809	2615	1
39	10856	2625	1
39	10908	2635	1
39	10946	2645	1
39	10989	2655	1
39	11039	2665	1
39	11208	2700	1
39	11318	2730	1
39	11333	2735	1
39	11358	2740	1
39	11372	2745	1
39	11396	2750	1
39	11412	2755	1
39	11431	2760	1
39	11445	2765	1
39	11471	2770	1
39	11588	2805	1
39	11615	2810	1
39	11702	2835	1
39	11729	2840	1
39	11748	2845	1
39	11774	2850	1
39	11788	2855	1
39	11808	2860	1
39	11821	2865	1
39	11842	2870	1
39	11862	2875	1
39	11912	2885	1
39	12056	2920	1
39	12182	2950	1
39	12200	2955	1
39	12229	2960	1
39	12341	2985	1
39	12425	3005	1
39	12447	3010	1
39	12465	3015	1
39	12493	3020	1
39	12513	3025	1
39	12537	3030	1
39	12554	3035	1
39	12579	3040	1
39	12596	3045	1
39	12621	3050	1
39	12638	3055	1
39	12666	3060	1
39	13256	3195	1
39	13283	3200	1
39	13298	3205	1
39	13323	3210	1
39	13400	3230	1
39	13419	3235	1
39	13448	3240	1
39	13586	3270	1
39	13681	3295	1
39	13707	3300	1
39	13726	3305	1
39	13754	3310	1
39	13776	3315	1
39	13807	3320	1
39	13828	3325	1
39	13853	3330	1
39	13936	3350	1
39	13955	3355	1
39	13984	3360	1
39	14005	3365	1
39	14028	3370	1
39	14160	3405	1
39	14188	3410	1
39	14290	3435	1
39	14313	3440	1
39	14451	3470	1
39	14473	3475	1
39	14617	3510	1
39	14633	3515	1
39	14656	3520	1
39	14674	3525	1
39	14783	3550	1
39	14799	3555	1
39	14825	3560	1
39	14841	3565	1
39	14980	3600	1
40	166	45	35
40	186	50	30
40	205	55	25
40	229	60	20
40	321	85	35
40	343	90	30
40	362	95	25
40	387	100	20
40	403	105	15
40	427	110	10
40	443	115	5
40	497	125	5
40	650	160	30
40	668	165	25
40	688	170	20
40	800	200	40
40	892	220	50
40	911	225	45
40	932	230	40
40	947	235	35
40	966	240	30
40	981	245	25
40	1002	250	20
40	1017	255	15
40	1044	260	10
40	1066	265	5
40	1110	275	5
40	1152	285	5
40	1188	295	5
40	1227	305	5
40	1270	315	5
40	1398	345	25
40	1423	350	20
40	1439	355	15
40	1597	390	40
40	1676	410	50
40	1691	415	45
40	1711	420	40
40	1724	425	35
40	1746	430	30
40	1762	435	25
40	1787	440	20
40	1805	445	15
40	1828	450	10
40	1931	475	25
40	2025	495	35
40	2052	500	30
40	2071	505	25
40	2212	540	50
40	2233	545	45
40	2258	550	40
40	2271	555	35
40	2295	560	30
40	2310	565	25
40	2332	570	20
40	2347	575	15
40	2371	580	10
40	2385	585	5
40	2432	595	5
40	2582	635	35
40	2612	640	30
40	2710	665	45
40	2735	670	40
40	2826	690	50
40	2845	695	45
40	2872	700	40
40	2888	705	35
40	2910	710	30
40	2922	715	25
40	2943	720	20
40	2957	725	15
40	2981	730	10
40	2999	735	5
40	3047	745	5
40	3079	755	5
40	3116	765	5
40	3164	775	5
40	3208	785	5
40	3247	795	5
40	3283	805	5
40	3322	815	5
40	3375	825	5
40	3408	835	5
40	3580	870	30
40	3722	900	50
40	3737	905	45
40	3837	930	60
40	3857	935	55
40	3884	940	50
40	3900	945	45
40	3920	950	40
40	3934	955	35
40	3957	960	30
40	3969	965	25
40	3992	970	20
40	4084	990	30
40	4190	1020	50
40	4203	1025	45
40	4225	1030	40
40	4243	1035	35
40	4269	1040	30
40	4289	1045	25
40	4318	1050	20
40	4335	1055	15
40	4361	1060	10
40	4905	1195	135
40	4927	1200	130
40	4942	1205	125
40	5016	1225	135
40	5037	1230	130
40	5051	1235	125
40	5076	1240	120
40	5092	1245	115
40	5117	1250	110
40	5134	1255	105
40	5157	1260	100
40	5171	1265	95
40	5334	1300	120
40	5353	1305	115
40	5372	1310	110
40	5475	1335	125
40	5500	1340	120
40	5517	1345	115
40	5538	1350	110
40	5554	1355	105
40	5579	1360	100
40	5656	1380	110
40	5669	1385	105
40	5688	1390	100
40	5702	1395	95
40	5726	1400	90
40	5929	1445	125
40	5948	1450	120
40	5959	1455	115
40	5981	1460	110
40	5999	1465	105
40	6025	1470	100
40	6045	1475	95
40	6071	1480	90
40	6090	1485	85
40	6117	1490	80
40	6133	1495	75
40	6158	1500	70
40	6177	1505	65
40	6208	1510	60
40	6229	1515	55
40	6258	1520	50
40	6389	1550	70
40	6625	1615	125
40	6742	1640	140
40	6757	1645	135
40	6839	1665	145
40	6868	1670	140
40	6958	1690	150
40	7081	1720	170
40	7161	1740	180
40	7182	1745	175
40	7207	1750	170
40	7222	1755	165
40	7247	1760	160
40	7570	1840	230
40	7583	1845	225
40	7607	1850	220
40	7836	1910	270
40	7853	1915	265
40	7994	1950	290
40	8011	1955	285
40	8039	1960	280
40	8058	1965	275
40	8081	1970	270
40	8094	1975	265
40	8117	1980	260
40	8133	1985	255
40	8248	2010	270
40	8267	2015	265
40	8291	2020	260
40	8307	2025	255
40	8331	2030	250
40	8344	2035	245
40	8369	2040	240
40	8389	2045	235
40	8415	2050	230
40	8429	2055	225
40	8537	2080	240
40	8653	2110	260
40	8669	2115	255
40	8692	2120	250
40	8773	2140	260
40	8791	2145	255
40	8818	2150	250
40	8834	2155	245
40	8859	2160	240
40	8873	2165	235
40	8898	2170	230
40	8919	2175	225
40	8942	2180	220
40	8957	2185	215
40	8981	2190	210
40	8995	2195	205
40	9018	2200	200
40	9037	2205	195
40	9197	2240	220
40	9215	2245	215
40	9234	2250	210
40	9249	2255	205
40	9272	2260	200
40	9288	2265	195
40	9315	2270	190
40	9336	2275	185
40	9362	2280	180
40	9378	2285	175
40	9404	2290	170
40	9425	2295	165
40	9456	2300	160
40	9476	2305	155
40	9501	2310	150
40	9519	2315	145
40	9546	2320	140
40	9562	2325	135
40	9588	2330	130
40	9608	2335	125
40	9637	2340	120
40	9658	2345	115
40	9688	2350	110
40	9704	2355	105
40	9729	2360	100
40	9742	2365	95
40	9765	2370	90
40	9784	2375	85
40	9815	2380	80
40	9832	2385	75
40	9857	2390	70
40	9874	2395	65
40	9901	2400	60
40	9994	2420	70
40	10062	2440	80
40	10077	2445	75
40	10103	2450	70
40	10124	2455	65
40	10151	2460	60
40	10171	2465	55
40	10200	2470	50
40	10221	2475	45
40	10242	2480	40
40	10257	2485	35
40	10282	2490	30
40	10300	2495	25
40	10324	2500	20
40	10339	2505	15
40	10364	2510	10
40	10382	2515	5
40	10425	2525	5
40	10471	2535	5
40	10517	2545	5
40	10566	2555	5
40	10605	2565	5
40	10639	2575	5
40	10678	2585	5
40	10719	2595	5
40	10765	2605	5
40	10809	2615	5
40	10856	2625	5
40	10908	2635	5
40	10946	2645	5
40	10989	2655	5
40	11039	2665	5
40	11208	2700	30
40	11318	2730	50
40	11333	2735	45
40	11358	2740	40
40	11372	2745	35
40	11396	2750	30
40	11412	2755	25
40	11431	2760	20
40	11445	2765	15
40	11471	2770	10
40	11588	2805	35
40	11615	2810	30
40	11702	2835	45
40	11729	2840	40
40	11748	2845	35
40	11774	2850	30
40	11788	2855	25
40	11808	2860	20
40	11821	2865	15
40	11842	2870	10
40	11862	2875	5
40	11912	2885	5
40	12056	2920	30
40	12182	2950	50
40	12200	2955	45
40	12229	2960	40
40	12341	2985	55
40	12425	3005	65
40	12447	3010	60
40	12465	3015	55
40	12493	3020	50
40	12513	3025	45
40	12537	3030	40
40	12554	3035	35
40	12579	3040	30
40	12596	3045	25
40	12621	3050	20
40	12638	3055	15
40	12666	3060	10
40	13256	3195	135
40	13283	3200	130
40	13298	3205	125
40	13323	3210	120
40	13400	3230	130
40	13419	3235	125
40	13448	3240	120
40	13586	3270	140
40	13681	3295	155
40	13707	3300	150
40	13726	3305	145
40	13754	3310	140
40	13776	3315	135
40	13807	3320	130
40	13828	3325	125
40	13853	3330	120
40	13936	3350	130
40	13955	3355	125
40	13984	3360	120
40	14005	3365	115
40	14028	3370	110
40	14160	3405	135
40	14188	3410	130
40	14290	3435	145
40	14313	3440	140
40	14451	3470	160
40	14473	3475	155
40	14617	3510	180
40	14633	3515	175
40	14656	3520	170
40	14674	3525	165
40	14783	3550	180
40	14799	3555	175
40	14825	3560	170
40	14841	3565	165
40	14980	3600	190
41	166	45	1
41	186	50	1
41	205	55	1
41	229	60	1
41	321	85	1
41	343	90	1
41	362	95	1
41	387	100	1
41	403	105	0
41	427	110	0
41	443	115	0
41	497	125	0
41	650	160	1
41	668	165	1
41	688	170	1
41	800	200	1
41	892	220	1
41	911	225	1
41	932	230	1
41	947	235	1
41	966	240	1
41	981	245	1
41	1002	250	1
41	1017	255	0
41	1044	260	0
41	1066	265	0
41	1110	275	0
41	1152	285	0
41	1188	295	0
41	1227	305	0
41	1270	315	0
41	1398	345	1
41	1423	350	1
41	1439	355	0
41	1597	390	1
41	1676	410	1
41	1691	415	1
41	1711	420	1
41	1724	425	1
41	1746	430	1
41	1762	435	1
41	1787	440	1
41	1805	445	0
41	1828	450	0
41	1931	475	1
41	2025	495	1
41	2052	500	1
41	2071	505	1
41	2212	540	1
41	2233	545	1
41	2258	550	1
41	2271	555	1
41	2295	560	1
41	2310	565	1
41	2332	570	1
41	2347	575	0
41	2371	580	0
41	2385	585	0
41	2432	595	0
41	2582	635	1
41	2612	640	1
41	2710	665	1
41	2735	670	1
41	2826	690	1
41	2845	695	1
41	2872	700	1
41	2888	705	1
41	2910	710	1
41	2922	715	1
41	2943	720	1
41	2957	725	0
41	2981	730	0
41	2999	735	0
41	3047	745	0
41	3079	755	0
41	3116	765	0
41	3164	775	0
41	3208	785	0
41	3247	795	0
41	3283	805	0
41	3322	815	0
41	3375	825	0
41	3408	835	0
41	3580	870	1
41	3722	900	1
41	3737	905	1
41	3837	930	1
41	3857	935	1
41	3884	940	1
41	3900	945	1
41	3920	950	1
41	3934	955	1
41	3957	960	1
41	3969	965	1
41	3992	970	1
41	4084	990	1
41	4190	1020	1
41	4203	1025	1
41	4225	1030	1
41	4243	1035	1
41	4269	1040	1
41	4289	1045	1
41	4318	1050	1
41	4335	1055	0
41	4361	1060	0
41	4905	1195	1
41	4927	1200	1
41	4942	1205	1
41	5016	1225	1
41	5037	1230	1
41	5051	1235	1
41	5076	1240	1
41	5092	1245	1
41	5117	1250	1
41	5134	1255	1
41	5157	1260	1
41	5171	1265	1
41	5334	1300	1
41	5353	1305	1
41	5372	1310	1
41	5475	1335	1
41	5500	1340	1
41	5517	1345	1
41	5538	1350	1
41	5554	1355	1
41	5579	1360	1
41	5656	1380	1
41	5669	1385	1
41	5688	1390	1
41	5702	1395	1
41	5726	1400	1
41	5929	1445	1
41	5948	1450	1
41	5959	1455	1
41	5981	1460	1
41	5999	1465	1
41	6025	1470	1
41	6045	1475	1
41	6071	1480	1
41	6090	1485	1
41	6117	1490	1
41	6133	1495	1
41	6158	1500	1
41	6177	1505	1
41	6208	1510	1
41	6229	1515	1
41	6258	1520	1
41	6389	1550	1
41	6625	1615	1
41	6742	1640	1
41	6757	1645	1
41	6839	1665	1
41	6868	1670	1
41	6958	1690	1
41	7081	1720	1
41	7161	1740	1
41	7182	1745	1
41	7207	1750	1
41	7222	1755	1
41	7247	1760	1
41	7570	1840	1
41	7583	1845	1
41	7607	1850	1
41	7836	1910	1
41	7853	1915	1
41	7994	1950	1
41	8011	1955	1
41	8039	1960	1
41	8058	1965	1
41	8081	1970	1
41	8094	1975	1
41	8117	1980	1
41	8133	1985	1
41	8248	2010	1
41	8267	2015	1
41	8291	2020	1
41	8307	2025	1
41	8331	2030	1
41	8344	2035	1
41	8369	2040	1
41	8389	2045	1
41	8415	2050	1
41	8429	2055	1
41	8537	2080	1
41	8653	2110	1
41	8669	2115	1
41	8692	2120	1
41	8773	2140	1
41	8791	2145	1
41	8818	2150	1
41	8834	2155	1
41	8859	2160	1
41	8873	2165	1
41	8898	2170	1
41	8919	2175	1
41	8942	2180	1
41	8957	2185	1
41	8981	2190	1
41	8995	2195	1
41	9018	2200	1
41	9037	2205	1
41	9197	2240	1
41	9215	2245	1
41	9234	2250	1
41	9249	2255	1
41	9272	2260	1
41	9288	2265	1
41	9315	2270	1
41	9336	2275	1
41	9362	2280	1
41	9378	2285	1
41	9404	2290	1
41	9425	2295	1
41	9456	2300	1
41	9476	2305	1
41	9501	2310	1
41	9519	2315	1
41	9546	2320	1
41	9562	2325	1
41	9588	2330	1
41	9608	2335	1
41	9637	2340	1
41	9658	2345	1
41	9688	2350	1
41	9704	2355	1
41	9729	2360	1
41	9742	2365	1
41	9765	2370	1
41	9784	2375	1
41	9815	2380	1
41	9832	2385	1
41	9857	2390	1
41	9874	2395	1
41	9901	2400	1
41	9994	2420	1
41	10062	2440	1
41	10077	2445	1
41	10103	2450	1
41	10124	2455	1
41	10151	2460	1
41	10171	2465	1
41	10200	2470	1
41	10221	2475	1
41	10242	2480	1
41	10257	2485	1
41	10282	2490	1
41	10300	2495	1
41	10324	2500	1
41	10339	2505	0
41	10364	2510	0
41	10382	2515	0
41	10425	2525	0
41	10471	2535	0
41	10517	2545	0
41	10566	2555	0
41	10605	2565	0
41	10639	2575	0
41	10678	2585	0
41	10719	2595	0
41	10765	2605	0
41	10809	2615	0
41	10856	2625	0
41	10908	2635	0
41	10946	2645	0
41	10989	2655	0
41	11039	2665	0
41	11208	2700	1
41	11318	2730	1
41	11333	2735	1
41	11358	2740	1
41	11372	2745	1
41	11396	2750	1
41	11412	2755	1
41	11431	2760	1
41	11445	2765	0
41	11471	2770	0
41	11588	2805	1
41	11615	2810	1
41	11702	2835	1
41	11729	2840	1
41	11748	2845	1
41	11774	2850	1
41	11788	2855	1
41	11808	2860	1
41	11821	2865	0
41	11842	2870	0
41	11862	2875	0
41	11912	2885	0
41	12056	2920	1
41	12182	2950	1
41	12200	2955	1
41	12229	2960	1
41	12341	2985	1
41	12425	3005	1
41	12447	3010	1
41	12465	3015	1
41	12493	3020	1
41	12513	3025	1
41	12537	3030	1
41	12554	3035	1
41	12579	3040	1
41	12596	3045	1
41	12621	3050	1
41	12638	3055	0
41	12666	3060	0
41	13256	3195	1
41	13283	3200	1
41	13298	3205	1
41	13323	3210	1
41	13400	3230	1
41	13419	3235	1
41	13448	3240	1
41	13586	3270	1
41	13681	3295	1
41	13707	3300	1
41	13726	3305	1
41	13754	3310	1
41	13776	3315	1
41	13807	3320	1
41	13828	3325	1
41	13853	3330	1
41	13936	3350	1
41	13955	3355	1
41	13984	3360	1
41	14005	3365	1
41	14028	3370	1
41	14160	3405	1
41	14188	3410	1
41	14290	3435	1
41	14313	3440	1
41	14451	3470	1
41	14473	3475	1
41	14617	3510	1
41	14633	3515	1
41	14656	3520	1
41	14674	3525	1
41	14783	3550	1
41	14799	3555	1
41	14825	3560	1
41	14841	3565	1
41	14980	3600	1

