version 2
run ContinuityTest1b-0-20210120-12:05:48-7236
attr configname ContinuityTest1b
attr datetime 20210120-12:05:48
attr experiment ContinuityTest1b
attr inifile omnetpp.ini
attr iterationvars ""
attr iterationvarsf ""
attr measurement ""
attr network slottedNetwork
attr processid 7236
attr repetition 0
attr replication #0
attr resultdir results
attr runnumber 0
attr seedset 0
param **.numTransmitters 10
param **.numChannels 20000
param **.sendProbability 1
param **.expMean 10s
param **.timeSlotSize 5s
param **.thresh 20s
param **.deterministicInterarrivalTime true
param **.numTransmitters 1
param **.numChannels 1
param **.sendProbability 1
param **.expMean 5s
param **.timeSlotSize 5s
param **.thresh 20s
param **.deterministicInterarrivalTime false

vector 0 slottedNetwork.ch throughput:vector ETV
attr source throughputSignal
vector 1 slottedNetwork.transmitters[0] numPacketOnBuffer:vector ETV
attr source numPacketOnBufferSignal
vector 2 slottedNetwork.transmitters[1] numPacketOnBuffer:vector ETV
attr source numPacketOnBufferSignal
vector 3 slottedNetwork.transmitters[2] numPacketOnBuffer:vector ETV
attr source numPacketOnBufferSignal
vector 4 slottedNetwork.transmitters[3] numPacketOnBuffer:vector ETV
attr source numPacketOnBufferSignal
vector 5 slottedNetwork.transmitters[4] numPacketOnBuffer:vector ETV
attr source numPacketOnBufferSignal
vector 6 slottedNetwork.transmitters[5] numPacketOnBuffer:vector ETV
attr source numPacketOnBufferSignal
vector 7 slottedNetwork.transmitters[6] numPacketOnBuffer:vector ETV
attr source numPacketOnBufferSignal
vector 8 slottedNetwork.transmitters[7] numPacketOnBuffer:vector ETV
attr source numPacketOnBufferSignal
vector 9 slottedNetwork.transmitters[8] numPacketOnBuffer:vector ETV
attr source numPacketOnBufferSignal
vector 10 slottedNetwork.transmitters[9] numPacketOnBuffer:vector ETV
attr source numPacketOnBufferSignal
vector 11 slottedNetwork.transmitters[0] numPacketCreated:vector ETV
attr source numPacketCreatedSignal
vector 12 slottedNetwork.transmitters[1] numPacketCreated:vector ETV
attr source numPacketCreatedSignal
vector 13 slottedNetwork.transmitters[2] numPacketCreated:vector ETV
attr source numPacketCreatedSignal
vector 14 slottedNetwork.transmitters[3] numPacketCreated:vector ETV
attr source numPacketCreatedSignal
vector 15 slottedNetwork.transmitters[4] numPacketCreated:vector ETV
attr source numPacketCreatedSignal
vector 16 slottedNetwork.transmitters[5] numPacketCreated:vector ETV
attr source numPacketCreatedSignal
vector 17 slottedNetwork.transmitters[6] numPacketCreated:vector ETV
attr source numPacketCreatedSignal
vector 18 slottedNetwork.transmitters[7] numPacketCreated:vector ETV
attr source numPacketCreatedSignal
vector 19 slottedNetwork.transmitters[8] numPacketCreated:vector ETV
attr source numPacketCreatedSignal
vector 20 slottedNetwork.transmitters[9] numPacketCreated:vector ETV
attr source numPacketCreatedSignal
vector 21 slottedNetwork.receivers[0] numPacketReceived:vector ETV
attr source numPacketReceivedSignal
vector 22 slottedNetwork.receivers[0] responseTime:vector ETV
attr source responseTimeSignal
vector 23 slottedNetwork.receivers[0] threshold:vector ETV
attr source thresholdSignal
vector 24 slottedNetwork.receivers[1] numPacketReceived:vector ETV
attr source numPacketReceivedSignal
vector 25 slottedNetwork.receivers[1] responseTime:vector ETV
attr source responseTimeSignal
vector 26 slottedNetwork.receivers[1] threshold:vector ETV
attr source thresholdSignal
vector 27 slottedNetwork.receivers[2] numPacketReceived:vector ETV
attr source numPacketReceivedSignal
vector 28 slottedNetwork.receivers[2] responseTime:vector ETV
attr source responseTimeSignal
vector 29 slottedNetwork.receivers[2] threshold:vector ETV
attr source thresholdSignal
vector 30 slottedNetwork.receivers[3] numPacketReceived:vector ETV
attr source numPacketReceivedSignal
vector 31 slottedNetwork.receivers[3] responseTime:vector ETV
attr source responseTimeSignal
vector 32 slottedNetwork.receivers[3] threshold:vector ETV
attr source thresholdSignal
vector 33 slottedNetwork.receivers[4] numPacketReceived:vector ETV
attr source numPacketReceivedSignal
vector 34 slottedNetwork.receivers[4] responseTime:vector ETV
attr source responseTimeSignal
vector 35 slottedNetwork.receivers[4] threshold:vector ETV
attr source thresholdSignal
vector 36 slottedNetwork.receivers[5] numPacketReceived:vector ETV
attr source numPacketReceivedSignal
vector 37 slottedNetwork.receivers[5] responseTime:vector ETV
attr source responseTimeSignal
vector 38 slottedNetwork.receivers[5] threshold:vector ETV
attr source thresholdSignal
vector 39 slottedNetwork.receivers[6] numPacketReceived:vector ETV
attr source numPacketReceivedSignal
vector 40 slottedNetwork.receivers[6] responseTime:vector ETV
attr source responseTimeSignal
vector 41 slottedNetwork.receivers[6] threshold:vector ETV
attr source thresholdSignal
vector 42 slottedNetwork.receivers[7] numPacketReceived:vector ETV
attr source numPacketReceivedSignal
vector 43 slottedNetwork.receivers[7] responseTime:vector ETV
attr source responseTimeSignal
vector 44 slottedNetwork.receivers[7] threshold:vector ETV
attr source thresholdSignal
vector 45 slottedNetwork.receivers[8] numPacketReceived:vector ETV
attr source numPacketReceivedSignal
vector 46 slottedNetwork.receivers[8] responseTime:vector ETV
attr source responseTimeSignal
vector 47 slottedNetwork.receivers[8] threshold:vector ETV
attr source thresholdSignal
vector 48 slottedNetwork.receivers[9] numPacketReceived:vector ETV
attr source numPacketReceivedSignal
vector 49 slottedNetwork.receivers[9] responseTime:vector ETV
attr source responseTimeSignal
vector 50 slottedNetwork.receivers[9] threshold:vector ETV
attr source thresholdSignal
0	1	5	0
0	22	10	0
0	43	15	10
0	74	20	0
0	95	25	10
0	126	30	0
0	147	35	10
0	178	40	0
0	199	45	10
0	230	50	0
0	251	55	10
0	282	60	0
0	303	65	10
0	334	70	0
0	355	75	10
0	386	80	0
0	407	85	10
0	438	90	0
0	459	95	10
0	490	100	0
0	511	105	10
0	542	110	0
0	563	115	10
0	594	120	0
0	615	125	10
0	646	130	0
0	667	135	10
0	698	140	0
0	719	145	10
0	750	150	0
0	771	155	10
0	802	160	0
0	823	165	10
0	854	170	0
0	875	175	10
0	906	180	0
0	927	185	10
0	958	190	0
0	979	195	10
0	1010	200	0
0	1031	205	10
0	1062	210	0
0	1083	215	10
0	1114	220	0
0	1135	225	10
0	1166	230	0
0	1187	235	10
0	1218	240	0
0	1239	245	10
0	1270	250	0
0	1291	255	10
0	1322	260	0
0	1343	265	10
0	1374	270	0
0	1395	275	10
0	1426	280	0
0	1447	285	10
0	1478	290	0
0	1499	295	10
0	1530	300	0
0	1551	305	10
0	1582	310	0
0	1603	315	10
0	1634	320	0
0	1655	325	10
0	1686	330	0
0	1707	335	10
0	1738	340	0
0	1759	345	10
0	1790	350	0
0	1811	355	10
0	1842	360	0
0	1863	365	10
0	1894	370	0
0	1915	375	10
0	1946	380	0
0	1967	385	10
0	1998	390	0
0	2019	395	10
0	2050	400	0
0	2071	405	10
0	2102	410	0
0	2123	415	10
0	2154	420	0
0	2175	425	10
0	2206	430	0
0	2227	435	10
0	2258	440	0
0	2279	445	10
0	2310	450	0
0	2331	455	10
0	2362	460	0
0	2383	465	10
0	2414	470	0
0	2435	475	10
0	2466	480	0
0	2487	485	10
0	2518	490	0
0	2539	495	10
0	2570	500	0
0	2591	505	10
0	2622	510	0
0	2643	515	10
0	2674	520	0
0	2695	525	10
0	2726	530	0
0	2747	535	10
0	2778	540	0
0	2799	545	10
0	2830	550	0
0	2851	555	10
0	2882	560	0
0	2903	565	10
0	2934	570	0
0	2955	575	10
0	2986	580	0
0	3007	585	10
0	3038	590	0
0	3059	595	10
0	3090	600	0
0	3111	605	10
0	3142	610	0
0	3163	615	10
0	3194	620	0
0	3215	625	10
0	3246	630	0
0	3267	635	10
0	3298	640	0
0	3319	645	10
0	3350	650	0
0	3371	655	10
0	3402	660	0
0	3423	665	10
0	3454	670	0
0	3475	675	10
0	3506	680	0
0	3527	685	10
0	3558	690	0
0	3579	695	10
0	3610	700	0
0	3631	705	10
0	3662	710	0
0	3683	715	10
0	3714	720	0
0	3735	725	10
0	3766	730	0
0	3787	735	10
0	3818	740	0
0	3839	745	10
0	3870	750	0
0	3891	755	10
0	3922	760	0
0	3943	765	10
0	3974	770	0
0	3995	775	10
0	4026	780	0
0	4047	785	10
0	4078	790	0
0	4099	795	10
0	4130	800	0
0	4151	805	10
0	4182	810	0
0	4203	815	10
0	4234	820	0
0	4255	825	10
0	4286	830	0
0	4307	835	10
0	4338	840	0
0	4359	845	10
0	4390	850	0
0	4411	855	10
0	4442	860	0
0	4463	865	10
0	4494	870	0
0	4515	875	10
0	4546	880	0
0	4567	885	10
0	4598	890	0
0	4619	895	10
0	4650	900	0
0	4671	905	10
0	4702	910	0
0	4723	915	10
0	4754	920	0
0	4775	925	10
0	4806	930	0
0	4827	935	10
0	4858	940	0
0	4879	945	10
0	4910	950	0
0	4931	955	10
0	4962	960	0
0	4983	965	10
0	5014	970	0
0	5035	975	10
0	5066	980	0
0	5087	985	10
0	5118	990	0
0	5139	995	10
0	5170	1000	0
0	5191	1005	10
0	5222	1010	0
0	5243	1015	10
0	5274	1020	0
0	5295	1025	10
0	5326	1030	0
0	5347	1035	10
0	5378	1040	0
0	5399	1045	10
0	5430	1050	0
0	5451	1055	10
0	5482	1060	0
0	5503	1065	10
0	5534	1070	0
0	5555	1075	10
0	5586	1080	0
0	5607	1085	10
0	5638	1090	0
0	5659	1095	10
0	5690	1100	0
0	5711	1105	10
0	5742	1110	0
0	5763	1115	10
0	5794	1120	0
0	5815	1125	10
0	5846	1130	0
0	5867	1135	10
0	5898	1140	0
0	5919	1145	10
0	5950	1150	0
0	5971	1155	10
0	6002	1160	0
0	6023	1165	10
0	6054	1170	0
0	6075	1175	10
0	6106	1180	0
0	6127	1185	10
0	6158	1190	0
0	6179	1195	10
0	6210	1200	0
0	6231	1205	10
0	6262	1210	0
0	6283	1215	10
0	6314	1220	0
0	6335	1225	10
0	6366	1230	0
0	6387	1235	10
0	6418	1240	0
0	6439	1245	10
0	6470	1250	0
0	6491	1255	10
0	6522	1260	0
0	6543	1265	10
0	6574	1270	0
0	6595	1275	10
0	6626	1280	0
0	6647	1285	10
0	6678	1290	0
0	6699	1295	10
0	6730	1300	0
0	6751	1305	10
0	6782	1310	0
0	6803	1315	10
0	6834	1320	0
0	6855	1325	10
0	6886	1330	0
0	6907	1335	10
0	6938	1340	0
0	6959	1345	10
0	6990	1350	0
0	7011	1355	10
0	7042	1360	0
0	7063	1365	10
0	7094	1370	0
0	7115	1375	10
0	7146	1380	0
0	7167	1385	10
0	7198	1390	0
0	7219	1395	10
0	7250	1400	0
0	7271	1405	10
0	7302	1410	0
0	7323	1415	10
0	7354	1420	0
0	7375	1425	10
0	7406	1430	0
0	7427	1435	10
0	7458	1440	0
0	7479	1445	10
0	7510	1450	0
0	7531	1455	10
0	7562	1460	0
0	7583	1465	10
0	7614	1470	0
0	7635	1475	10
0	7666	1480	0
0	7687	1485	10
0	7718	1490	0
0	7739	1495	10
0	7770	1500	0
0	7791	1505	10
0	7822	1510	0
0	7843	1515	10
0	7874	1520	0
0	7895	1525	10
0	7926	1530	0
0	7947	1535	10
0	7978	1540	0
0	7999	1545	10
0	8030	1550	0
0	8051	1555	10
0	8082	1560	0
0	8103	1565	10
0	8134	1570	0
0	8155	1575	10
0	8186	1580	0
0	8207	1585	10
0	8238	1590	0
0	8259	1595	10
0	8290	1600	0
0	8311	1605	10
0	8342	1610	0
0	8363	1615	10
0	8394	1620	0
0	8415	1625	10
0	8446	1630	0
0	8467	1635	10
0	8498	1640	0
0	8519	1645	10
0	8550	1650	0
0	8571	1655	10
0	8602	1660	0
0	8623	1665	10
0	8654	1670	0
0	8675	1675	10
0	8706	1680	0
0	8727	1685	10
0	8758	1690	0
0	8779	1695	10
0	8810	1700	0
0	8831	1705	10
0	8862	1710	0
0	8883	1715	10
0	8914	1720	0
0	8935	1725	10
0	8966	1730	0
0	8987	1735	10
0	9018	1740	0
0	9039	1745	10
0	9070	1750	0
0	9091	1755	10
0	9122	1760	0
0	9143	1765	10
0	9174	1770	0
0	9195	1775	10
0	9226	1780	0
0	9247	1785	10
0	9278	1790	0
0	9299	1795	10
0	9330	1800	0
0	9351	1805	10
0	9382	1810	0
0	9403	1815	10
0	9434	1820	0
0	9455	1825	10
0	9486	1830	0
0	9507	1835	10
0	9538	1840	0
0	9559	1845	10
0	9590	1850	0
0	9611	1855	10
0	9642	1860	0
0	9663	1865	10
0	9694	1870	0
0	9715	1875	10
0	9746	1880	0
0	9767	1885	10
0	9798	1890	0
0	9819	1895	10
0	9850	1900	0
0	9871	1905	10
0	9902	1910	0
0	9923	1915	10
0	9954	1920	0
0	9975	1925	10
0	10006	1930	0
0	10027	1935	10
0	10058	1940	0
0	10079	1945	10
0	10110	1950	0
0	10131	1955	10
0	10162	1960	0
0	10183	1965	10
0	10214	1970	0
0	10235	1975	10
0	10266	1980	0
0	10287	1985	10
0	10318	1990	0
0	10339	1995	10
0	10370	2000	0
0	10391	2005	10
0	10422	2010	0
0	10443	2015	10
0	10474	2020	0
0	10495	2025	10
0	10526	2030	0
0	10547	2035	10
0	10578	2040	0
0	10599	2045	10
0	10630	2050	0
0	10651	2055	10
0	10682	2060	0
0	10703	2065	10
0	10734	2070	0
0	10755	2075	10
0	10786	2080	0
0	10807	2085	10
0	10838	2090	0
0	10859	2095	10
0	10890	2100	0
0	10911	2105	10
0	10942	2110	0
0	10963	2115	10
0	10994	2120	0
0	11015	2125	10
0	11046	2130	0
0	11067	2135	10
0	11098	2140	0
0	11119	2145	10
0	11150	2150	0
0	11171	2155	10
0	11202	2160	0
0	11223	2165	10
0	11254	2170	0
0	11275	2175	10
0	11306	2180	0
0	11327	2185	10
0	11358	2190	0
0	11379	2195	10
0	11410	2200	0
0	11431	2205	10
0	11462	2210	0
0	11483	2215	10
0	11514	2220	0
0	11535	2225	10
0	11566	2230	0
0	11587	2235	10
0	11618	2240	0
0	11639	2245	10
0	11670	2250	0
0	11691	2255	10
0	11722	2260	0
0	11743	2265	10
0	11774	2270	0
0	11795	2275	10
0	11826	2280	0
0	11847	2285	10
0	11878	2290	0
0	11899	2295	10
0	11930	2300	0
0	11951	2305	10
0	11982	2310	0
0	12003	2315	10
0	12034	2320	0
0	12055	2325	10
0	12086	2330	0
0	12107	2335	10
0	12138	2340	0
0	12159	2345	10
0	12190	2350	0
0	12211	2355	10
0	12242	2360	0
0	12263	2365	10
0	12294	2370	0
0	12315	2375	10
0	12346	2380	0
0	12367	2385	10
0	12398	2390	0
0	12419	2395	10
0	12450	2400	0
0	12471	2405	10
0	12502	2410	0
0	12523	2415	10
0	12554	2420	0
0	12575	2425	10
0	12606	2430	0
0	12627	2435	10
0	12658	2440	0
0	12679	2445	10
0	12710	2450	0
0	12731	2455	10
0	12762	2460	0
0	12783	2465	10
0	12814	2470	0
0	12835	2475	10
0	12866	2480	0
0	12887	2485	10
0	12918	2490	0
0	12939	2495	10
0	12970	2500	0
0	12991	2505	10
0	13022	2510	0
0	13043	2515	10
0	13074	2520	0
0	13095	2525	10
0	13126	2530	0
0	13147	2535	10
0	13178	2540	0
0	13199	2545	10
0	13230	2550	0
0	13251	2555	10
0	13282	2560	0
0	13303	2565	10
0	13334	2570	0
0	13355	2575	10
0	13386	2580	0
0	13407	2585	10
0	13438	2590	0
0	13459	2595	10
0	13490	2600	0
0	13511	2605	10
0	13542	2610	0
0	13563	2615	10
0	13594	2620	0
0	13615	2625	10
0	13646	2630	0
0	13667	2635	10
0	13698	2640	0
0	13719	2645	10
0	13750	2650	0
0	13771	2655	10
0	13802	2660	0
0	13823	2665	10
0	13854	2670	0
0	13875	2675	10
0	13906	2680	0
0	13927	2685	10
0	13958	2690	0
0	13979	2695	10
0	14010	2700	0
0	14031	2705	10
0	14062	2710	0
0	14083	2715	10
0	14114	2720	0
0	14135	2725	10
0	14166	2730	0
0	14187	2735	10
0	14218	2740	0
0	14239	2745	10
0	14270	2750	0
0	14291	2755	10
0	14322	2760	0
0	14343	2765	10
0	14374	2770	0
0	14395	2775	10
0	14426	2780	0
0	14447	2785	10
0	14478	2790	0
0	14499	2795	10
0	14530	2800	0
0	14551	2805	10
0	14582	2810	0
0	14603	2815	10
0	14634	2820	0
0	14655	2825	10
0	14686	2830	0
0	14707	2835	10
0	14738	2840	0
0	14759	2845	10
0	14790	2850	0
0	14811	2855	10
0	14842	2860	0
0	14863	2865	10
0	14894	2870	0
0	14915	2875	10
0	14946	2880	0
0	14967	2885	10
0	14998	2890	0
0	15019	2895	10
0	15050	2900	0
0	15071	2905	10
0	15102	2910	0
0	15123	2915	10
0	15154	2920	0
0	15175	2925	10
0	15206	2930	0
0	15227	2935	10
0	15258	2940	0
0	15279	2945	10
0	15310	2950	0
0	15331	2955	10
0	15362	2960	0
0	15383	2965	10
0	15414	2970	0
0	15435	2975	10
0	15466	2980	0
0	15487	2985	10
0	15518	2990	0
0	15539	2995	10
0	15570	3000	0
0	15591	3005	10
0	15622	3010	0
0	15643	3015	10
0	15674	3020	0
0	15695	3025	10
0	15726	3030	0
0	15747	3035	10
0	15778	3040	0
0	15799	3045	10
0	15830	3050	0
0	15851	3055	10
0	15882	3060	0
0	15903	3065	10
0	15934	3070	0
0	15955	3075	10
0	15986	3080	0
0	16007	3085	10
0	16038	3090	0
0	16059	3095	10
0	16090	3100	0
0	16111	3105	10
0	16142	3110	0
0	16163	3115	10
0	16194	3120	0
0	16215	3125	10
0	16246	3130	0
0	16267	3135	10
0	16298	3140	0
0	16319	3145	10
0	16350	3150	0
0	16371	3155	10
0	16402	3160	0
0	16423	3165	10
0	16454	3170	0
0	16475	3175	10
0	16506	3180	0
0	16527	3185	10
0	16558	3190	0
0	16579	3195	10
0	16610	3200	0
0	16631	3205	10
0	16662	3210	0
0	16683	3215	10
0	16714	3220	0
0	16735	3225	10
0	16766	3230	0
0	16787	3235	10
0	16818	3240	0
0	16839	3245	10
0	16870	3250	0
0	16891	3255	10
0	16922	3260	0
0	16943	3265	10
0	16974	3270	0
0	16995	3275	10
0	17026	3280	0
0	17047	3285	10
0	17078	3290	0
0	17099	3295	10
0	17130	3300	0
0	17151	3305	10
0	17182	3310	0
0	17203	3315	10
0	17234	3320	0
0	17255	3325	10
0	17286	3330	0
0	17307	3335	10
0	17338	3340	0
0	17359	3345	10
0	17390	3350	0
0	17411	3355	10
0	17442	3360	0
0	17463	3365	10
0	17494	3370	0
0	17515	3375	10
0	17546	3380	0
0	17567	3385	10
0	17598	3390	0
0	17619	3395	10
0	17650	3400	0
0	17671	3405	10
0	17702	3410	0
0	17723	3415	10
0	17754	3420	0
0	17775	3425	10
0	17806	3430	0
0	17827	3435	10
0	17858	3440	0
0	17879	3445	10
0	17910	3450	0
0	17931	3455	10
0	17962	3460	0
0	17983	3465	10
0	18014	3470	0
0	18035	3475	10
0	18066	3480	0
0	18087	3485	10
0	18118	3490	0
0	18139	3495	10
0	18170	3500	0
0	18191	3505	10
0	18222	3510	0
0	18243	3515	10
0	18274	3520	0
0	18295	3525	10
0	18326	3530	0
0	18347	3535	10
0	18378	3540	0
0	18399	3545	10
0	18430	3550	0
0	18451	3555	10
0	18482	3560	0
0	18503	3565	10
0	18534	3570	0
0	18555	3575	10
0	18586	3580	0
0	18607	3585	10
0	18638	3590	0
0	18659	3595	10
0	18690	3600	0
1	2	5	0
1	12	10	1
1	23	10	1
1	44	15	0
1	64	20	1
1	75	20	1
1	96	25	0
1	116	30	1
1	127	30	1
1	148	35	0
1	168	40	1
1	179	40	1
1	200	45	0
1	220	50	1
1	231	50	1
1	252	55	0
1	272	60	1
1	283	60	1
1	304	65	0
1	324	70	1
1	335	70	1
1	356	75	0
1	376	80	1
1	387	80	1
1	408	85	0
1	428	90	1
1	439	90	1
1	460	95	0
1	480	100	1
1	491	100	1
1	512	105	0
1	532	110	1
1	543	110	1
1	564	115	0
1	584	120	1
1	595	120	1
1	616	125	0
1	636	130	1
1	647	130	1
1	668	135	0
1	688	140	1
1	699	140	1
1	720	145	0
1	740	150	1
1	751	150	1
1	772	155	0
1	792	160	1
1	803	160	1
1	824	165	0
1	844	170	1
1	855	170	1
1	876	175	0
1	896	180	1
1	907	180	1
1	928	185	0
1	948	190	1
1	959	190	1
1	980	195	0
1	1000	200	1
1	1011	200	1
1	1032	205	0
1	1052	210	1
1	1063	210	1
1	1084	215	0
1	1104	220	1
1	1115	220	1
1	1136	225	0
1	1156	230	1
1	1167	230	1
1	1188	235	0
1	1208	240	1
1	1219	240	1
1	1240	245	0
1	1260	250	1
1	1271	250	1
1	1292	255	0
1	1312	260	1
1	1323	260	1
1	1344	265	0
1	1364	270	1
1	1375	270	1
1	1396	275	0
1	1416	280	1
1	1427	280	1
1	1448	285	0
1	1468	290	1
1	1479	290	1
1	1500	295	0
1	1520	300	1
1	1531	300	1
1	1552	305	0
1	1572	310	1
1	1583	310	1
1	1604	315	0
1	1624	320	1
1	1635	320	1
1	1656	325	0
1	1676	330	1
1	1687	330	1
1	1708	335	0
1	1728	340	1
1	1739	340	1
1	1760	345	0
1	1780	350	1
1	1791	350	1
1	1812	355	0
1	1832	360	1
1	1843	360	1
1	1864	365	0
1	1884	370	1
1	1895	370	1
1	1916	375	0
1	1936	380	1
1	1947	380	1
1	1968	385	0
1	1988	390	1
1	1999	390	1
1	2020	395	0
1	2040	400	1
1	2051	400	1
1	2072	405	0
1	2092	410	1
1	2103	410	1
1	2124	415	0
1	2144	420	1
1	2155	420	1
1	2176	425	0
1	2196	430	1
1	2207	430	1
1	2228	435	0
1	2248	440	1
1	2259	440	1
1	2280	445	0
1	2300	450	1
1	2311	450	1
1	2332	455	0
1	2352	460	1
1	2363	460	1
1	2384	465	0
1	2404	470	1
1	2415	470	1
1	2436	475	0
1	2456	480	1
1	2467	480	1
1	2488	485	0
1	2508	490	1
1	2519	490	1
1	2540	495	0
1	2560	500	1
1	2571	500	1
1	2592	505	0
1	2612	510	1
1	2623	510	1
1	2644	515	0
1	2664	520	1
1	2675	520	1
1	2696	525	0
1	2716	530	1
1	2727	530	1
1	2748	535	0
1	2768	540	1
1	2779	540	1
1	2800	545	0
1	2820	550	1
1	2831	550	1
1	2852	555	0
1	2872	560	1
1	2883	560	1
1	2904	565	0
1	2924	570	1
1	2935	570	1
1	2956	575	0
1	2976	580	1
1	2987	580	1
1	3008	585	0
1	3028	590	1
1	3039	590	1
1	3060	595	0
1	3080	600	1
1	3091	600	1
1	3112	605	0
1	3132	610	1
1	3143	610	1
1	3164	615	0
1	3184	620	1
1	3195	620	1
1	3216	625	0
1	3236	630	1
1	3247	630	1
1	3268	635	0
1	3288	640	1
1	3299	640	1
1	3320	645	0
1	3340	650	1
1	3351	650	1
1	3372	655	0
1	3392	660	1
1	3403	660	1
1	3424	665	0
1	3444	670	1
1	3455	670	1
1	3476	675	0
1	3496	680	1
1	3507	680	1
1	3528	685	0
1	3548	690	1
1	3559	690	1
1	3580	695	0
1	3600	700	1
1	3611	700	1
1	3632	705	0
1	3652	710	1
1	3663	710	1
1	3684	715	0
1	3704	720	1
1	3715	720	1
1	3736	725	0
1	3756	730	1
1	3767	730	1
1	3788	735	0
1	3808	740	1
1	3819	740	1
1	3840	745	0
1	3860	750	1
1	3871	750	1
1	3892	755	0
1	3912	760	1
1	3923	760	1
1	3944	765	0
1	3964	770	1
1	3975	770	1
1	3996	775	0
1	4016	780	1
1	4027	780	1
1	4048	785	0
1	4068	790	1
1	4079	790	1
1	4100	795	0
1	4120	800	1
1	4131	800	1
1	4152	805	0
1	4172	810	1
1	4183	810	1
1	4204	815	0
1	4224	820	1
1	4235	820	1
1	4256	825	0
1	4276	830	1
1	4287	830	1
1	4308	835	0
1	4328	840	1
1	4339	840	1
1	4360	845	0
1	4380	850	1
1	4391	850	1
1	4412	855	0
1	4432	860	1
1	4443	860	1
1	4464	865	0
1	4484	870	1
1	4495	870	1
1	4516	875	0
1	4536	880	1
1	4547	880	1
1	4568	885	0
1	4588	890	1
1	4599	890	1
1	4620	895	0
1	4640	900	1
1	4651	900	1
1	4672	905	0
1	4692	910	1
1	4703	910	1
1	4724	915	0
1	4744	920	1
1	4755	920	1
1	4776	925	0
1	4796	930	1
1	4807	930	1
1	4828	935	0
1	4848	940	1
1	4859	940	1
1	4880	945	0
1	4900	950	1
1	4911	950	1
1	4932	955	0
1	4952	960	1
1	4963	960	1
1	4984	965	0
1	5004	970	1
1	5015	970	1
1	5036	975	0
1	5056	980	1
1	5067	980	1
1	5088	985	0
1	5108	990	1
1	5119	990	1
1	5140	995	0
1	5160	1000	1
1	5171	1000	1
1	5192	1005	0
1	5212	1010	1
1	5223	1010	1
1	5244	1015	0
1	5264	1020	1
1	5275	1020	1
1	5296	1025	0
1	5316	1030	1
1	5327	1030	1
1	5348	1035	0
1	5368	1040	1
1	5379	1040	1
1	5400	1045	0
1	5420	1050	1
1	5431	1050	1
1	5452	1055	0
1	5472	1060	1
1	5483	1060	1
1	5504	1065	0
1	5524	1070	1
1	5535	1070	1
1	5556	1075	0
1	5576	1080	1
1	5587	1080	1
1	5608	1085	0
1	5628	1090	1
1	5639	1090	1
1	5660	1095	0
1	5680	1100	1
1	5691	1100	1
1	5712	1105	0
1	5732	1110	1
1	5743	1110	1
1	5764	1115	0
1	5784	1120	1
1	5795	1120	1
1	5816	1125	0
1	5836	1130	1
1	5847	1130	1
1	5868	1135	0
1	5888	1140	1
1	5899	1140	1
1	5920	1145	0
1	5940	1150	1
1	5951	1150	1
1	5972	1155	0
1	5992	1160	1
1	6003	1160	1
1	6024	1165	0
1	6044	1170	1
1	6055	1170	1
1	6076	1175	0
1	6096	1180	1
1	6107	1180	1
1	6128	1185	0
1	6148	1190	1
1	6159	1190	1
1	6180	1195	0
1	6200	1200	1
1	6211	1200	1
1	6232	1205	0
1	6252	1210	1
1	6263	1210	1
1	6284	1215	0
1	6304	1220	1
1	6315	1220	1
1	6336	1225	0
1	6356	1230	1
1	6367	1230	1
1	6388	1235	0
1	6408	1240	1
1	6419	1240	1
1	6440	1245	0
1	6460	1250	1
1	6471	1250	1
1	6492	1255	0
1	6512	1260	1
1	6523	1260	1
1	6544	1265	0
1	6564	1270	1
1	6575	1270	1
1	6596	1275	0
1	6616	1280	1
1	6627	1280	1
1	6648	1285	0
1	6668	1290	1
1	6679	1290	1
1	6700	1295	0
1	6720	1300	1
1	6731	1300	1
1	6752	1305	0
1	6772	1310	1
1	6783	1310	1
1	6804	1315	0
1	6824	1320	1
1	6835	1320	1
1	6856	1325	0
1	6876	1330	1
1	6887	1330	1
1	6908	1335	0
1	6928	1340	1
1	6939	1340	1
1	6960	1345	0
1	6980	1350	1
1	6991	1350	1
1	7012	1355	0
1	7032	1360	1
1	7043	1360	1
1	7064	1365	0
1	7084	1370	1
1	7095	1370	1
1	7116	1375	0
1	7136	1380	1
1	7147	1380	1
1	7168	1385	0
1	7188	1390	1
1	7199	1390	1
1	7220	1395	0
1	7240	1400	1
1	7251	1400	1
1	7272	1405	0
1	7292	1410	1
1	7303	1410	1
1	7324	1415	0
1	7344	1420	1
1	7355	1420	1
1	7376	1425	0
1	7396	1430	1
1	7407	1430	1
1	7428	1435	0
1	7448	1440	1
1	7459	1440	1
1	7480	1445	0
1	7500	1450	1
1	7511	1450	1
1	7532	1455	0
1	7552	1460	1
1	7563	1460	1
1	7584	1465	0
1	7604	1470	1
1	7615	1470	1
1	7636	1475	0
1	7656	1480	1
1	7667	1480	1
1	7688	1485	0
1	7708	1490	1
1	7719	1490	1
1	7740	1495	0
1	7760	1500	1
1	7771	1500	1
1	7792	1505	0
1	7812	1510	1
1	7823	1510	1
1	7844	1515	0
1	7864	1520	1
1	7875	1520	1
1	7896	1525	0
1	7916	1530	1
1	7927	1530	1
1	7948	1535	0
1	7968	1540	1
1	7979	1540	1
1	8000	1545	0
1	8020	1550	1
1	8031	1550	1
1	8052	1555	0
1	8072	1560	1
1	8083	1560	1
1	8104	1565	0
1	8124	1570	1
1	8135	1570	1
1	8156	1575	0
1	8176	1580	1
1	8187	1580	1
1	8208	1585	0
1	8228	1590	1
1	8239	1590	1
1	8260	1595	0
1	8280	1600	1
1	8291	1600	1
1	8312	1605	0
1	8332	1610	1
1	8343	1610	1
1	8364	1615	0
1	8384	1620	1
1	8395	1620	1
1	8416	1625	0
1	8436	1630	1
1	8447	1630	1
1	8468	1635	0
1	8488	1640	1
1	8499	1640	1
1	8520	1645	0
1	8540	1650	1
1	8551	1650	1
1	8572	1655	0
1	8592	1660	1
1	8603	1660	1
1	8624	1665	0
1	8644	1670	1
1	8655	1670	1
1	8676	1675	0
1	8696	1680	1
1	8707	1680	1
1	8728	1685	0
1	8748	1690	1
1	8759	1690	1
1	8780	1695	0
1	8800	1700	1
1	8811	1700	1
1	8832	1705	0
1	8852	1710	1
1	8863	1710	1
1	8884	1715	0
1	8904	1720	1
1	8915	1720	1
1	8936	1725	0
1	8956	1730	1
1	8967	1730	1
1	8988	1735	0
1	9008	1740	1
1	9019	1740	1
1	9040	1745	0
1	9060	1750	1
1	9071	1750	1
1	9092	1755	0
1	9112	1760	1
1	9123	1760	1
1	9144	1765	0
1	9164	1770	1
1	9175	1770	1
1	9196	1775	0
1	9216	1780	1
1	9227	1780	1
1	9248	1785	0
1	9268	1790	1
1	9279	1790	1
1	9300	1795	0
1	9320	1800	1
1	9331	1800	1
1	9352	1805	0
1	9372	1810	1
1	9383	1810	1
1	9404	1815	0
1	9424	1820	1
1	9435	1820	1
1	9456	1825	0
1	9476	1830	1
1	9487	1830	1
1	9508	1835	0
1	9528	1840	1
1	9539	1840	1
1	9560	1845	0
1	9580	1850	1
1	9591	1850	1
1	9612	1855	0
1	9632	1860	1
1	9643	1860	1
1	9664	1865	0
1	9684	1870	1
1	9695	1870	1
1	9716	1875	0
1	9736	1880	1
1	9747	1880	1
1	9768	1885	0
1	9788	1890	1
1	9799	1890	1
1	9820	1895	0
1	9840	1900	1
1	9851	1900	1
1	9872	1905	0
1	9892	1910	1
1	9903	1910	1
1	9924	1915	0
1	9944	1920	1
1	9955	1920	1
1	9976	1925	0
1	9996	1930	1
1	10007	1930	1
1	10028	1935	0
1	10048	1940	1
1	10059	1940	1
1	10080	1945	0
1	10100	1950	1
1	10111	1950	1
1	10132	1955	0
1	10152	1960	1
1	10163	1960	1
1	10184	1965	0
1	10204	1970	1
1	10215	1970	1
1	10236	1975	0
1	10256	1980	1
1	10267	1980	1
1	10288	1985	0
1	10308	1990	1
1	10319	1990	1
1	10340	1995	0
1	10360	2000	1
1	10371	2000	1
1	10392	2005	0
1	10412	2010	1
1	10423	2010	1
1	10444	2015	0
1	10464	2020	1
1	10475	2020	1
1	10496	2025	0
1	10516	2030	1
1	10527	2030	1
1	10548	2035	0
1	10568	2040	1
1	10579	2040	1
1	10600	2045	0
1	10620	2050	1
1	10631	2050	1
1	10652	2055	0
1	10672	2060	1
1	10683	2060	1
1	10704	2065	0
1	10724	2070	1
1	10735	2070	1
1	10756	2075	0
1	10776	2080	1
1	10787	2080	1
1	10808	2085	0
1	10828	2090	1
1	10839	2090	1
1	10860	2095	0
1	10880	2100	1
1	10891	2100	1
1	10912	2105	0
1	10932	2110	1
1	10943	2110	1
1	10964	2115	0
1	10984	2120	1
1	10995	2120	1
1	11016	2125	0
1	11036	2130	1
1	11047	2130	1
1	11068	2135	0
1	11088	2140	1
1	11099	2140	1
1	11120	2145	0
1	11140	2150	1
1	11151	2150	1
1	11172	2155	0
1	11192	2160	1
1	11203	2160	1
1	11224	2165	0
1	11244	2170	1
1	11255	2170	1
1	11276	2175	0
1	11296	2180	1
1	11307	2180	1
1	11328	2185	0
1	11348	2190	1
1	11359	2190	1
1	11380	2195	0
1	11400	2200	1
1	11411	2200	1
1	11432	2205	0
1	11452	2210	1
1	11463	2210	1
1	11484	2215	0
1	11504	2220	1
1	11515	2220	1
1	11536	2225	0
1	11556	2230	1
1	11567	2230	1
1	11588	2235	0
1	11608	2240	1
1	11619	2240	1
1	11640	2245	0
1	11660	2250	1
1	11671	2250	1
1	11692	2255	0
1	11712	2260	1
1	11723	2260	1
1	11744	2265	0
1	11764	2270	1
1	11775	2270	1
1	11796	2275	0
1	11816	2280	1
1	11827	2280	1
1	11848	2285	0
1	11868	2290	1
1	11879	2290	1
1	11900	2295	0
1	11920	2300	1
1	11931	2300	1
1	11952	2305	0
1	11972	2310	1
1	11983	2310	1
1	12004	2315	0
1	12024	2320	1
1	12035	2320	1
1	12056	2325	0
1	12076	2330	1
1	12087	2330	1
1	12108	2335	0
1	12128	2340	1
1	12139	2340	1
1	12160	2345	0
1	12180	2350	1
1	12191	2350	1
1	12212	2355	0
1	12232	2360	1
1	12243	2360	1
1	12264	2365	0
1	12284	2370	1
1	12295	2370	1
1	12316	2375	0
1	12336	2380	1
1	12347	2380	1
1	12368	2385	0
1	12388	2390	1
1	12399	2390	1
1	12420	2395	0
1	12440	2400	1
1	12451	2400	1
1	12472	2405	0
1	12492	2410	1
1	12503	2410	1
1	12524	2415	0
1	12544	2420	1
1	12555	2420	1
1	12576	2425	0
1	12596	2430	1
1	12607	2430	1
1	12628	2435	0
1	12648	2440	1
1	12659	2440	1
1	12680	2445	0
1	12700	2450	1
1	12711	2450	1
1	12732	2455	0
1	12752	2460	1
1	12763	2460	1
1	12784	2465	0
1	12804	2470	1
1	12815	2470	1
1	12836	2475	0
1	12856	2480	1
1	12867	2480	1
1	12888	2485	0
1	12908	2490	1
1	12919	2490	1
1	12940	2495	0
1	12960	2500	1
1	12971	2500	1
1	12992	2505	0
1	13012	2510	1
1	13023	2510	1
1	13044	2515	0
1	13064	2520	1
1	13075	2520	1
1	13096	2525	0
1	13116	2530	1
1	13127	2530	1
1	13148	2535	0
1	13168	2540	1
1	13179	2540	1
1	13200	2545	0
1	13220	2550	1
1	13231	2550	1
1	13252	2555	0
1	13272	2560	1
1	13283	2560	1
1	13304	2565	0
1	13324	2570	1
1	13335	2570	1
1	13356	2575	0
1	13376	2580	1
1	13387	2580	1
1	13408	2585	0
1	13428	2590	1
1	13439	2590	1
1	13460	2595	0
1	13480	2600	1
1	13491	2600	1
1	13512	2605	0
1	13532	2610	1
1	13543	2610	1
1	13564	2615	0
1	13584	2620	1
1	13595	2620	1
1	13616	2625	0
1	13636	2630	1
1	13647	2630	1
1	13668	2635	0
1	13688	2640	1
1	13699	2640	1
1	13720	2645	0
1	13740	2650	1
1	13751	2650	1
1	13772	2655	0
1	13792	2660	1
1	13803	2660	1
1	13824	2665	0
1	13844	2670	1
1	13855	2670	1
1	13876	2675	0
1	13896	2680	1
1	13907	2680	1
1	13928	2685	0
1	13948	2690	1
1	13959	2690	1
1	13980	2695	0
1	14000	2700	1
1	14011	2700	1
1	14032	2705	0
1	14052	2710	1
1	14063	2710	1
1	14084	2715	0
1	14104	2720	1
1	14115	2720	1
1	14136	2725	0
1	14156	2730	1
1	14167	2730	1
1	14188	2735	0
1	14208	2740	1
1	14219	2740	1
1	14240	2745	0
1	14260	2750	1
1	14271	2750	1
1	14292	2755	0
1	14312	2760	1
1	14323	2760	1
1	14344	2765	0
1	14364	2770	1
1	14375	2770	1
1	14396	2775	0
1	14416	2780	1
1	14427	2780	1
1	14448	2785	0
1	14468	2790	1
1	14479	2790	1
1	14500	2795	0
1	14520	2800	1
1	14531	2800	1
1	14552	2805	0
1	14572	2810	1
1	14583	2810	1
1	14604	2815	0
1	14624	2820	1
1	14635	2820	1
1	14656	2825	0
1	14676	2830	1
1	14687	2830	1
1	14708	2835	0
1	14728	2840	1
1	14739	2840	1
1	14760	2845	0
1	14780	2850	1
1	14791	2850	1
1	14812	2855	0
1	14832	2860	1
1	14843	2860	1
1	14864	2865	0
1	14884	2870	1
1	14895	2870	1
1	14916	2875	0
1	14936	2880	1
1	14947	2880	1
1	14968	2885	0
1	14988	2890	1
1	14999	2890	1
1	15020	2895	0
1	15040	2900	1
1	15051	2900	1
1	15072	2905	0
1	15092	2910	1
1	15103	2910	1
1	15124	2915	0
1	15144	2920	1
1	15155	2920	1
1	15176	2925	0
1	15196	2930	1
1	15207	2930	1
1	15228	2935	0
1	15248	2940	1
1	15259	2940	1
1	15280	2945	0
1	15300	2950	1
1	15311	2950	1
1	15332	2955	0
1	15352	2960	1
1	15363	2960	1
1	15384	2965	0
1	15404	2970	1
1	15415	2970	1
1	15436	2975	0
1	15456	2980	1
1	15467	2980	1
1	15488	2985	0
1	15508	2990	1
1	15519	2990	1
1	15540	2995	0
1	15560	3000	1
1	15571	3000	1
1	15592	3005	0
1	15612	3010	1
1	15623	3010	1
1	15644	3015	0
1	15664	3020	1
1	15675	3020	1
1	15696	3025	0
1	15716	3030	1
1	15727	3030	1
1	15748	3035	0
1	15768	3040	1
1	15779	3040	1
1	15800	3045	0
1	15820	3050	1
1	15831	3050	1
1	15852	3055	0
1	15872	3060	1
1	15883	3060	1
1	15904	3065	0
1	15924	3070	1
1	15935	3070	1
1	15956	3075	0
1	15976	3080	1
1	15987	3080	1
1	16008	3085	0
1	16028	3090	1
1	16039	3090	1
1	16060	3095	0
1	16080	3100	1
1	16091	3100	1
1	16112	3105	0
1	16132	3110	1
1	16143	3110	1
1	16164	3115	0
1	16184	3120	1
1	16195	3120	1
1	16216	3125	0
1	16236	3130	1
1	16247	3130	1
1	16268	3135	0
1	16288	3140	1
1	16299	3140	1
1	16320	3145	0
1	16340	3150	1
1	16351	3150	1
1	16372	3155	0
1	16392	3160	1
1	16403	3160	1
1	16424	3165	0
1	16444	3170	1
1	16455	3170	1
1	16476	3175	0
1	16496	3180	1
1	16507	3180	1
1	16528	3185	0
1	16548	3190	1
1	16559	3190	1
1	16580	3195	0
1	16600	3200	1
1	16611	3200	1
1	16632	3205	0
1	16652	3210	1
1	16663	3210	1
1	16684	3215	0
1	16704	3220	1
1	16715	3220	1
1	16736	3225	0
1	16756	3230	1
1	16767	3230	1
1	16788	3235	0
1	16808	3240	1
1	16819	3240	1
1	16840	3245	0
1	16860	3250	1
1	16871	3250	1
1	16892	3255	0
1	16912	3260	1
1	16923	3260	1
1	16944	3265	0
1	16964	3270	1
1	16975	3270	1
1	16996	3275	0
1	17016	3280	1
1	17027	3280	1
1	17048	3285	0
1	17068	3290	1
1	17079	3290	1
1	17100	3295	0
1	17120	3300	1
1	17131	3300	1
1	17152	3305	0
1	17172	3310	1
1	17183	3310	1
1	17204	3315	0
1	17224	3320	1
1	17235	3320	1
1	17256	3325	0
1	17276	3330	1
1	17287	3330	1
1	17308	3335	0
1	17328	3340	1
1	17339	3340	1
1	17360	3345	0
1	17380	3350	1
1	17391	3350	1
1	17412	3355	0
1	17432	3360	1
1	17443	3360	1
1	17464	3365	0
1	17484	3370	1
1	17495	3370	1
1	17516	3375	0
1	17536	3380	1
1	17547	3380	1
1	17568	3385	0
1	17588	3390	1
1	17599	3390	1
1	17620	3395	0
1	17640	3400	1
1	17651	3400	1
1	17672	3405	0
1	17692	3410	1
1	17703	3410	1
1	17724	3415	0
1	17744	3420	1
1	17755	3420	1
1	17776	3425	0
1	17796	3430	1
1	17807	3430	1
1	17828	3435	0
1	17848	3440	1
1	17859	3440	1
1	17880	3445	0
1	17900	3450	1
1	17911	3450	1
1	17932	3455	0
1	17952	3460	1
1	17963	3460	1
1	17984	3465	0
1	18004	3470	1
1	18015	3470	1
1	18036	3475	0
1	18056	3480	1
1	18067	3480	1
1	18088	3485	0
1	18108	3490	1
1	18119	3490	1
1	18140	3495	0
1	18160	3500	1
1	18171	3500	1
1	18192	3505	0
1	18212	3510	1
1	18223	3510	1
1	18244	3515	0
1	18264	3520	1
1	18275	3520	1
1	18296	3525	0
1	18316	3530	1
1	18327	3530	1
1	18348	3535	0
1	18368	3540	1
1	18379	3540	1
1	18400	3545	0
1	18420	3550	1
1	18431	3550	1
1	18452	3555	0
1	18472	3560	1
1	18483	3560	1
1	18504	3565	0
1	18524	3570	1
1	18535	3570	1
1	18556	3575	0
1	18576	3580	1
1	18587	3580	1
1	18608	3585	0
1	18628	3590	1
1	18639	3590	1
1	18660	3595	0
1	18680	3600	1
1	18691	3600	1
2	3	5	0
2	13	10	1
2	24	10	1
2	46	15	0
2	65	20	1
2	76	20	1
2	98	25	0
2	117	30	1
2	128	30	1
2	150	35	0
2	169	40	1
2	180	40	1
2	202	45	0
2	221	50	1
2	232	50	1
2	254	55	0
2	273	60	1
2	284	60	1
2	306	65	0
2	325	70	1
2	336	70	1
2	358	75	0
2	377	80	1
2	388	80	1
2	410	85	0
2	429	90	1
2	440	90	1
2	462	95	0
2	481	100	1
2	492	100	1
2	514	105	0
2	533	110	1
2	544	110	1
2	566	115	0
2	585	120	1
2	596	120	1
2	618	125	0
2	637	130	1
2	648	130	1
2	670	135	0
2	689	140	1
2	700	140	1
2	722	145	0
2	741	150	1
2	752	150	1
2	774	155	0
2	793	160	1
2	804	160	1
2	826	165	0
2	845	170	1
2	856	170	1
2	878	175	0
2	897	180	1
2	908	180	1
2	930	185	0
2	949	190	1
2	960	190	1
2	982	195	0
2	1001	200	1
2	1012	200	1
2	1034	205	0
2	1053	210	1
2	1064	210	1
2	1086	215	0
2	1105	220	1
2	1116	220	1
2	1138	225	0
2	1157	230	1
2	1168	230	1
2	1190	235	0
2	1209	240	1
2	1220	240	1
2	1242	245	0
2	1261	250	1
2	1272	250	1
2	1294	255	0
2	1313	260	1
2	1324	260	1
2	1346	265	0
2	1365	270	1
2	1376	270	1
2	1398	275	0
2	1417	280	1
2	1428	280	1
2	1450	285	0
2	1469	290	1
2	1480	290	1
2	1502	295	0
2	1521	300	1
2	1532	300	1
2	1554	305	0
2	1573	310	1
2	1584	310	1
2	1606	315	0
2	1625	320	1
2	1636	320	1
2	1658	325	0
2	1677	330	1
2	1688	330	1
2	1710	335	0
2	1729	340	1
2	1740	340	1
2	1762	345	0
2	1781	350	1
2	1792	350	1
2	1814	355	0
2	1833	360	1
2	1844	360	1
2	1866	365	0
2	1885	370	1
2	1896	370	1
2	1918	375	0
2	1937	380	1
2	1948	380	1
2	1970	385	0
2	1989	390	1
2	2000	390	1
2	2022	395	0
2	2041	400	1
2	2052	400	1
2	2074	405	0
2	2093	410	1
2	2104	410	1
2	2126	415	0
2	2145	420	1
2	2156	420	1
2	2178	425	0
2	2197	430	1
2	2208	430	1
2	2230	435	0
2	2249	440	1
2	2260	440	1
2	2282	445	0
2	2301	450	1
2	2312	450	1
2	2334	455	0
2	2353	460	1
2	2364	460	1
2	2386	465	0
2	2405	470	1
2	2416	470	1
2	2438	475	0
2	2457	480	1
2	2468	480	1
2	2490	485	0
2	2509	490	1
2	2520	490	1
2	2542	495	0
2	2561	500	1
2	2572	500	1
2	2594	505	0
2	2613	510	1
2	2624	510	1
2	2646	515	0
2	2665	520	1
2	2676	520	1
2	2698	525	0
2	2717	530	1
2	2728	530	1
2	2750	535	0
2	2769	540	1
2	2780	540	1
2	2802	545	0
2	2821	550	1
2	2832	550	1
2	2854	555	0
2	2873	560	1
2	2884	560	1
2	2906	565	0
2	2925	570	1
2	2936	570	1
2	2958	575	0
2	2977	580	1
2	2988	580	1
2	3010	585	0
2	3029	590	1
2	3040	590	1
2	3062	595	0
2	3081	600	1
2	3092	600	1
2	3114	605	0
2	3133	610	1
2	3144	610	1
2	3166	615	0
2	3185	620	1
2	3196	620	1
2	3218	625	0
2	3237	630	1
2	3248	630	1
2	3270	635	0
2	3289	640	1
2	3300	640	1
2	3322	645	0
2	3341	650	1
2	3352	650	1
2	3374	655	0
2	3393	660	1
2	3404	660	1
2	3426	665	0
2	3445	670	1
2	3456	670	1
2	3478	675	0
2	3497	680	1
2	3508	680	1
2	3530	685	0
2	3549	690	1
2	3560	690	1
2	3582	695	0
2	3601	700	1
2	3612	700	1
2	3634	705	0
2	3653	710	1
2	3664	710	1
2	3686	715	0
2	3705	720	1
2	3716	720	1
2	3738	725	0
2	3757	730	1
2	3768	730	1
2	3790	735	0
2	3809	740	1
2	3820	740	1
2	3842	745	0
2	3861	750	1
2	3872	750	1
2	3894	755	0
2	3913	760	1
2	3924	760	1
2	3946	765	0
2	3965	770	1
2	3976	770	1
2	3998	775	0
2	4017	780	1
2	4028	780	1
2	4050	785	0
2	4069	790	1
2	4080	790	1
2	4102	795	0
2	4121	800	1
2	4132	800	1
2	4154	805	0
2	4173	810	1
2	4184	810	1
2	4206	815	0
2	4225	820	1
2	4236	820	1
2	4258	825	0
2	4277	830	1
2	4288	830	1
2	4310	835	0
2	4329	840	1
2	4340	840	1
2	4362	845	0
2	4381	850	1
2	4392	850	1
2	4414	855	0
2	4433	860	1
2	4444	860	1
2	4466	865	0
2	4485	870	1
2	4496	870	1
2	4518	875	0
2	4537	880	1
2	4548	880	1
2	4570	885	0
2	4589	890	1
2	4600	890	1
2	4622	895	0
2	4641	900	1
2	4652	900	1
2	4674	905	0
2	4693	910	1
2	4704	910	1
2	4726	915	0
2	4745	920	1
2	4756	920	1
2	4778	925	0
2	4797	930	1
2	4808	930	1
2	4830	935	0
2	4849	940	1
2	4860	940	1
2	4882	945	0
2	4901	950	1
2	4912	950	1
2	4934	955	0
2	4953	960	1
2	4964	960	1
2	4986	965	0
2	5005	970	1
2	5016	970	1
2	5038	975	0
2	5057	980	1
2	5068	980	1
2	5090	985	0
2	5109	990	1
2	5120	990	1
2	5142	995	0
2	5161	1000	1
2	5172	1000	1
2	5194	1005	0
2	5213	1010	1
2	5224	1010	1
2	5246	1015	0
2	5265	1020	1
2	5276	1020	1
2	5298	1025	0
2	5317	1030	1
2	5328	1030	1
2	5350	1035	0
2	5369	1040	1
2	5380	1040	1
2	5402	1045	0
2	5421	1050	1
2	5432	1050	1
2	5454	1055	0
2	5473	1060	1
2	5484	1060	1
2	5506	1065	0
2	5525	1070	1
2	5536	1070	1
2	5558	1075	0
2	5577	1080	1
2	5588	1080	1
2	5610	1085	0
2	5629	1090	1
2	5640	1090	1
2	5662	1095	0
2	5681	1100	1
2	5692	1100	1
2	5714	1105	0
2	5733	1110	1
2	5744	1110	1
2	5766	1115	0
2	5785	1120	1
2	5796	1120	1
2	5818	1125	0
2	5837	1130	1
2	5848	1130	1
2	5870	1135	0
2	5889	1140	1
2	5900	1140	1
2	5922	1145	0
2	5941	1150	1
2	5952	1150	1
2	5974	1155	0
2	5993	1160	1
2	6004	1160	1
2	6026	1165	0
2	6045	1170	1
2	6056	1170	1
2	6078	1175	0
2	6097	1180	1
2	6108	1180	1
2	6130	1185	0
2	6149	1190	1
2	6160	1190	1
2	6182	1195	0
2	6201	1200	1
2	6212	1200	1
2	6234	1205	0
2	6253	1210	1
2	6264	1210	1
2	6286	1215	0
2	6305	1220	1
2	6316	1220	1
2	6338	1225	0
2	6357	1230	1
2	6368	1230	1
2	6390	1235	0
2	6409	1240	1
2	6420	1240	1
2	6442	1245	0
2	6461	1250	1
2	6472	1250	1
2	6494	1255	0
2	6513	1260	1
2	6524	1260	1
2	6546	1265	0
2	6565	1270	1
2	6576	1270	1
2	6598	1275	0
2	6617	1280	1
2	6628	1280	1
2	6650	1285	0
2	6669	1290	1
2	6680	1290	1
2	6702	1295	0
2	6721	1300	1
2	6732	1300	1
2	6754	1305	0
2	6773	1310	1
2	6784	1310	1
2	6806	1315	0
2	6825	1320	1
2	6836	1320	1
2	6858	1325	0
2	6877	1330	1
2	6888	1330	1
2	6910	1335	0
2	6929	1340	1
2	6940	1340	1
2	6962	1345	0
2	6981	1350	1
2	6992	1350	1
2	7014	1355	0
2	7033	1360	1
2	7044	1360	1
2	7066	1365	0
2	7085	1370	1
2	7096	1370	1
2	7118	1375	0
2	7137	1380	1
2	7148	1380	1
2	7170	1385	0
2	7189	1390	1
2	7200	1390	1
2	7222	1395	0
2	7241	1400	1
2	7252	1400	1
2	7274	1405	0
2	7293	1410	1
2	7304	1410	1
2	7326	1415	0
2	7345	1420	1
2	7356	1420	1
2	7378	1425	0
2	7397	1430	1
2	7408	1430	1
2	7430	1435	0
2	7449	1440	1
2	7460	1440	1
2	7482	1445	0
2	7501	1450	1
2	7512	1450	1
2	7534	1455	0
2	7553	1460	1
2	7564	1460	1
2	7586	1465	0
2	7605	1470	1
2	7616	1470	1
2	7638	1475	0
2	7657	1480	1
2	7668	1480	1
2	7690	1485	0
2	7709	1490	1
2	7720	1490	1
2	7742	1495	0
2	7761	1500	1
2	7772	1500	1
2	7794	1505	0
2	7813	1510	1
2	7824	1510	1
2	7846	1515	0
2	7865	1520	1
2	7876	1520	1
2	7898	1525	0
2	7917	1530	1
2	7928	1530	1
2	7950	1535	0
2	7969	1540	1
2	7980	1540	1
2	8002	1545	0
2	8021	1550	1
2	8032	1550	1
2	8054	1555	0
2	8073	1560	1
2	8084	1560	1
2	8106	1565	0
2	8125	1570	1
2	8136	1570	1
2	8158	1575	0
2	8177	1580	1
2	8188	1580	1
2	8210	1585	0
2	8229	1590	1
2	8240	1590	1
2	8262	1595	0
2	8281	1600	1
2	8292	1600	1
2	8314	1605	0
2	8333	1610	1
2	8344	1610	1
2	8366	1615	0
2	8385	1620	1
2	8396	1620	1
2	8418	1625	0
2	8437	1630	1
2	8448	1630	1
2	8470	1635	0
2	8489	1640	1
2	8500	1640	1
2	8522	1645	0
2	8541	1650	1
2	8552	1650	1
2	8574	1655	0
2	8593	1660	1
2	8604	1660	1
2	8626	1665	0
2	8645	1670	1
2	8656	1670	1
2	8678	1675	0
2	8697	1680	1
2	8708	1680	1
2	8730	1685	0
2	8749	1690	1
2	8760	1690	1
2	8782	1695	0
2	8801	1700	1
2	8812	1700	1
2	8834	1705	0
2	8853	1710	1
2	8864	1710	1
2	8886	1715	0
2	8905	1720	1
2	8916	1720	1
2	8938	1725	0
2	8957	1730	1
2	8968	1730	1
2	8990	1735	0
2	9009	1740	1
2	9020	1740	1
2	9042	1745	0
2	9061	1750	1
2	9072	1750	1
2	9094	1755	0
2	9113	1760	1
2	9124	1760	1
2	9146	1765	0
2	9165	1770	1
2	9176	1770	1
2	9198	1775	0
2	9217	1780	1
2	9228	1780	1
2	9250	1785	0
2	9269	1790	1
2	9280	1790	1
2	9302	1795	0
2	9321	1800	1
2	9332	1800	1
2	9354	1805	0
2	9373	1810	1
2	9384	1810	1
2	9406	1815	0
2	9425	1820	1
2	9436	1820	1
2	9458	1825	0
2	9477	1830	1
2	9488	1830	1
2	9510	1835	0
2	9529	1840	1
2	9540	1840	1
2	9562	1845	0
2	9581	1850	1
2	9592	1850	1
2	9614	1855	0
2	9633	1860	1
2	9644	1860	1
2	9666	1865	0
2	9685	1870	1
2	9696	1870	1
2	9718	1875	0
2	9737	1880	1
2	9748	1880	1
2	9770	1885	0
2	9789	1890	1
2	9800	1890	1
2	9822	1895	0
2	9841	1900	1
2	9852	1900	1
2	9874	1905	0
2	9893	1910	1
2	9904	1910	1
2	9926	1915	0
2	9945	1920	1
2	9956	1920	1
2	9978	1925	0
2	9997	1930	1
2	10008	1930	1
2	10030	1935	0
2	10049	1940	1
2	10060	1940	1
2	10082	1945	0
2	10101	1950	1
2	10112	1950	1
2	10134	1955	0
2	10153	1960	1
2	10164	1960	1
2	10186	1965	0
2	10205	1970	1
2	10216	1970	1
2	10238	1975	0
2	10257	1980	1
2	10268	1980	1
2	10290	1985	0
2	10309	1990	1
2	10320	1990	1
2	10342	1995	0
2	10361	2000	1
2	10372	2000	1
2	10394	2005	0
2	10413	2010	1
2	10424	2010	1
2	10446	2015	0
2	10465	2020	1
2	10476	2020	1
2	10498	2025	0
2	10517	2030	1
2	10528	2030	1
2	10550	2035	0
2	10569	2040	1
2	10580	2040	1
2	10602	2045	0
2	10621	2050	1
2	10632	2050	1
2	10654	2055	0
2	10673	2060	1
2	10684	2060	1
2	10706	2065	0
2	10725	2070	1
2	10736	2070	1
2	10758	2075	0
2	10777	2080	1
2	10788	2080	1
2	10810	2085	0
2	10829	2090	1
2	10840	2090	1
2	10862	2095	0
2	10881	2100	1
2	10892	2100	1
2	10914	2105	0
2	10933	2110	1
2	10944	2110	1
2	10966	2115	0
2	10985	2120	1
2	10996	2120	1
2	11018	2125	0
2	11037	2130	1
2	11048	2130	1
2	11070	2135	0
2	11089	2140	1
2	11100	2140	1
2	11122	2145	0
2	11141	2150	1
2	11152	2150	1
2	11174	2155	0
2	11193	2160	1
2	11204	2160	1
2	11226	2165	0
2	11245	2170	1
2	11256	2170	1
2	11278	2175	0
2	11297	2180	1
2	11308	2180	1
2	11330	2185	0
2	11349	2190	1
2	11360	2190	1
2	11382	2195	0
2	11401	2200	1
2	11412	2200	1
2	11434	2205	0
2	11453	2210	1
2	11464	2210	1
2	11486	2215	0
2	11505	2220	1
2	11516	2220	1
2	11538	2225	0
2	11557	2230	1
2	11568	2230	1
2	11590	2235	0
2	11609	2240	1
2	11620	2240	1
2	11642	2245	0
2	11661	2250	1
2	11672	2250	1
2	11694	2255	0
2	11713	2260	1
2	11724	2260	1
2	11746	2265	0
2	11765	2270	1
2	11776	2270	1
2	11798	2275	0
2	11817	2280	1
2	11828	2280	1
2	11850	2285	0
2	11869	2290	1
2	11880	2290	1
2	11902	2295	0
2	11921	2300	1
2	11932	2300	1
2	11954	2305	0
2	11973	2310	1
2	11984	2310	1
2	12006	2315	0
2	12025	2320	1
2	12036	2320	1
2	12058	2325	0
2	12077	2330	1
2	12088	2330	1
2	12110	2335	0
2	12129	2340	1
2	12140	2340	1
2	12162	2345	0
2	12181	2350	1
2	12192	2350	1
2	12214	2355	0
2	12233	2360	1
2	12244	2360	1
2	12266	2365	0
2	12285	2370	1
2	12296	2370	1
2	12318	2375	0
2	12337	2380	1
2	12348	2380	1
2	12370	2385	0
2	12389	2390	1
2	12400	2390	1
2	12422	2395	0
2	12441	2400	1
2	12452	2400	1
2	12474	2405	0
2	12493	2410	1
2	12504	2410	1
2	12526	2415	0
2	12545	2420	1
2	12556	2420	1
2	12578	2425	0
2	12597	2430	1
2	12608	2430	1
2	12630	2435	0
2	12649	2440	1
2	12660	2440	1
2	12682	2445	0
2	12701	2450	1
2	12712	2450	1
2	12734	2455	0
2	12753	2460	1
2	12764	2460	1
2	12786	2465	0
2	12805	2470	1
2	12816	2470	1
2	12838	2475	0
2	12857	2480	1
2	12868	2480	1
2	12890	2485	0
2	12909	2490	1
2	12920	2490	1
2	12942	2495	0
2	12961	2500	1
2	12972	2500	1
2	12994	2505	0
2	13013	2510	1
2	13024	2510	1
2	13046	2515	0
2	13065	2520	1
2	13076	2520	1
2	13098	2525	0
2	13117	2530	1
2	13128	2530	1
2	13150	2535	0
2	13169	2540	1
2	13180	2540	1
2	13202	2545	0
2	13221	2550	1
2	13232	2550	1
2	13254	2555	0
2	13273	2560	1
2	13284	2560	1
2	13306	2565	0
2	13325	2570	1
2	13336	2570	1
2	13358	2575	0
2	13377	2580	1
2	13388	2580	1
2	13410	2585	0
2	13429	2590	1
2	13440	2590	1
2	13462	2595	0
2	13481	2600	1
2	13492	2600	1
2	13514	2605	0
2	13533	2610	1
2	13544	2610	1
2	13566	2615	0
2	13585	2620	1
2	13596	2620	1
2	13618	2625	0
2	13637	2630	1
2	13648	2630	1
2	13670	2635	0
2	13689	2640	1
2	13700	2640	1
2	13722	2645	0
2	13741	2650	1
2	13752	2650	1
2	13774	2655	0
2	13793	2660	1
2	13804	2660	1
2	13826	2665	0
2	13845	2670	1
2	13856	2670	1
2	13878	2675	0
2	13897	2680	1
2	13908	2680	1
2	13930	2685	0
2	13949	2690	1
2	13960	2690	1
2	13982	2695	0
2	14001	2700	1
2	14012	2700	1
2	14034	2705	0
2	14053	2710	1
2	14064	2710	1
2	14086	2715	0
2	14105	2720	1
2	14116	2720	1
2	14138	2725	0
2	14157	2730	1
2	14168	2730	1
2	14190	2735	0
2	14209	2740	1
2	14220	2740	1
2	14242	2745	0
2	14261	2750	1
2	14272	2750	1
2	14294	2755	0
2	14313	2760	1
2	14324	2760	1
2	14346	2765	0
2	14365	2770	1
2	14376	2770	1
2	14398	2775	0
2	14417	2780	1
2	14428	2780	1
2	14450	2785	0
2	14469	2790	1
2	14480	2790	1
2	14502	2795	0
2	14521	2800	1
2	14532	2800	1
2	14554	2805	0
2	14573	2810	1
2	14584	2810	1
2	14606	2815	0
2	14625	2820	1
2	14636	2820	1
2	14658	2825	0
2	14677	2830	1
2	14688	2830	1
2	14710	2835	0
2	14729	2840	1
2	14740	2840	1
2	14762	2845	0
2	14781	2850	1
2	14792	2850	1
2	14814	2855	0
2	14833	2860	1
2	14844	2860	1
2	14866	2865	0
2	14885	2870	1
2	14896	2870	1
2	14918	2875	0
2	14937	2880	1
2	14948	2880	1
2	14970	2885	0
2	14989	2890	1
2	15000	2890	1
2	15022	2895	0
2	15041	2900	1
2	15052	2900	1
2	15074	2905	0
2	15093	2910	1
2	15104	2910	1
2	15126	2915	0
2	15145	2920	1
2	15156	2920	1
2	15178	2925	0
2	15197	2930	1
2	15208	2930	1
2	15230	2935	0
2	15249	2940	1
2	15260	2940	1
2	15282	2945	0
2	15301	2950	1
2	15312	2950	1
2	15334	2955	0
2	15353	2960	1
2	15364	2960	1
2	15386	2965	0
2	15405	2970	1
2	15416	2970	1
2	15438	2975	0
2	15457	2980	1
2	15468	2980	1
2	15490	2985	0
2	15509	2990	1
2	15520	2990	1
2	15542	2995	0
2	15561	3000	1
2	15572	3000	1
2	15594	3005	0
2	15613	3010	1
2	15624	3010	1
2	15646	3015	0
2	15665	3020	1
2	15676	3020	1
2	15698	3025	0
2	15717	3030	1
2	15728	3030	1
2	15750	3035	0
2	15769	3040	1
2	15780	3040	1
2	15802	3045	0
2	15821	3050	1
2	15832	3050	1
2	15854	3055	0
2	15873	3060	1
2	15884	3060	1
2	15906	3065	0
2	15925	3070	1
2	15936	3070	1
2	15958	3075	0
2	15977	3080	1
2	15988	3080	1
2	16010	3085	0
2	16029	3090	1
2	16040	3090	1
2	16062	3095	0
2	16081	3100	1
2	16092	3100	1
2	16114	3105	0
2	16133	3110	1
2	16144	3110	1
2	16166	3115	0
2	16185	3120	1
2	16196	3120	1
2	16218	3125	0
2	16237	3130	1
2	16248	3130	1
2	16270	3135	0
2	16289	3140	1
2	16300	3140	1
2	16322	3145	0
2	16341	3150	1
2	16352	3150	1
2	16374	3155	0
2	16393	3160	1
2	16404	3160	1
2	16426	3165	0
2	16445	3170	1
2	16456	3170	1
2	16478	3175	0
2	16497	3180	1
2	16508	3180	1
2	16530	3185	0
2	16549	3190	1
2	16560	3190	1
2	16582	3195	0
2	16601	3200	1
2	16612	3200	1
2	16634	3205	0
2	16653	3210	1
2	16664	3210	1
2	16686	3215	0
2	16705	3220	1
2	16716	3220	1
2	16738	3225	0
2	16757	3230	1
2	16768	3230	1
2	16790	3235	0
2	16809	3240	1
2	16820	3240	1
2	16842	3245	0
2	16861	3250	1
2	16872	3250	1
2	16894	3255	0
2	16913	3260	1
2	16924	3260	1
2	16946	3265	0
2	16965	3270	1
2	16976	3270	1
2	16998	3275	0
2	17017	3280	1
2	17028	3280	1
2	17050	3285	0
2	17069	3290	1
2	17080	3290	1
2	17102	3295	0
2	17121	3300	1
2	17132	3300	1
2	17154	3305	0
2	17173	3310	1
2	17184	3310	1
2	17206	3315	0
2	17225	3320	1
2	17236	3320	1
2	17258	3325	0
2	17277	3330	1
2	17288	3330	1
2	17310	3335	0
2	17329	3340	1
2	17340	3340	1
2	17362	3345	0
2	17381	3350	1
2	17392	3350	1
2	17414	3355	0
2	17433	3360	1
2	17444	3360	1
2	17466	3365	0
2	17485	3370	1
2	17496	3370	1
2	17518	3375	0
2	17537	3380	1
2	17548	3380	1
2	17570	3385	0
2	17589	3390	1
2	17600	3390	1
2	17622	3395	0
2	17641	3400	1
2	17652	3400	1
2	17674	3405	0
2	17693	3410	1
2	17704	3410	1
2	17726	3415	0
2	17745	3420	1
2	17756	3420	1
2	17778	3425	0
2	17797	3430	1
2	17808	3430	1
2	17830	3435	0
2	17849	3440	1
2	17860	3440	1
2	17882	3445	0
2	17901	3450	1
2	17912	3450	1
2	17934	3455	0
2	17953	3460	1
2	17964	3460	1
2	17986	3465	0
2	18005	3470	1
2	18016	3470	1
2	18038	3475	0
2	18057	3480	1
2	18068	3480	1
2	18090	3485	0
2	18109	3490	1
2	18120	3490	1
2	18142	3495	0
2	18161	3500	1
2	18172	3500	1
2	18194	3505	0
2	18213	3510	1
2	18224	3510	1
2	18246	3515	0
2	18265	3520	1
2	18276	3520	1
2	18298	3525	0
2	18317	3530	1
2	18328	3530	1
2	18350	3535	0
2	18369	3540	1
2	18380	3540	1
2	18402	3545	0
2	18421	3550	1
2	18432	3550	1
2	18454	3555	0
2	18473	3560	1
2	18484	3560	1
2	18506	3565	0
2	18525	3570	1
2	18536	3570	1
2	18558	3575	0
2	18577	3580	1
2	18588	3580	1
2	18610	3585	0
2	18629	3590	1
2	18640	3590	1
2	18662	3595	0
2	18681	3600	1
2	18692	3600	1
3	4	5	0
3	14	10	1
3	25	10	1
3	48	15	0
3	66	20	1
3	77	20	1
3	100	25	0
3	118	30	1
3	129	30	1
3	152	35	0
3	170	40	1
3	181	40	1
3	204	45	0
3	222	50	1
3	233	50	1
3	256	55	0
3	274	60	1
3	285	60	1
3	308	65	0
3	326	70	1
3	337	70	1
3	360	75	0
3	378	80	1
3	389	80	1
3	412	85	0
3	430	90	1
3	441	90	1
3	464	95	0
3	482	100	1
3	493	100	1
3	516	105	0
3	534	110	1
3	545	110	1
3	568	115	0
3	586	120	1
3	597	120	1
3	620	125	0
3	638	130	1
3	649	130	1
3	672	135	0
3	690	140	1
3	701	140	1
3	724	145	0
3	742	150	1
3	753	150	1
3	776	155	0
3	794	160	1
3	805	160	1
3	828	165	0
3	846	170	1
3	857	170	1
3	880	175	0
3	898	180	1
3	909	180	1
3	932	185	0
3	950	190	1
3	961	190	1
3	984	195	0
3	1002	200	1
3	1013	200	1
3	1036	205	0
3	1054	210	1
3	1065	210	1
3	1088	215	0
3	1106	220	1
3	1117	220	1
3	1140	225	0
3	1158	230	1
3	1169	230	1
3	1192	235	0
3	1210	240	1
3	1221	240	1
3	1244	245	0
3	1262	250	1
3	1273	250	1
3	1296	255	0
3	1314	260	1
3	1325	260	1
3	1348	265	0
3	1366	270	1
3	1377	270	1
3	1400	275	0
3	1418	280	1
3	1429	280	1
3	1452	285	0
3	1470	290	1
3	1481	290	1
3	1504	295	0
3	1522	300	1
3	1533	300	1
3	1556	305	0
3	1574	310	1
3	1585	310	1
3	1608	315	0
3	1626	320	1
3	1637	320	1
3	1660	325	0
3	1678	330	1
3	1689	330	1
3	1712	335	0
3	1730	340	1
3	1741	340	1
3	1764	345	0
3	1782	350	1
3	1793	350	1
3	1816	355	0
3	1834	360	1
3	1845	360	1
3	1868	365	0
3	1886	370	1
3	1897	370	1
3	1920	375	0
3	1938	380	1
3	1949	380	1
3	1972	385	0
3	1990	390	1
3	2001	390	1
3	2024	395	0
3	2042	400	1
3	2053	400	1
3	2076	405	0
3	2094	410	1
3	2105	410	1
3	2128	415	0
3	2146	420	1
3	2157	420	1
3	2180	425	0
3	2198	430	1
3	2209	430	1
3	2232	435	0
3	2250	440	1
3	2261	440	1
3	2284	445	0
3	2302	450	1
3	2313	450	1
3	2336	455	0
3	2354	460	1
3	2365	460	1
3	2388	465	0
3	2406	470	1
3	2417	470	1
3	2440	475	0
3	2458	480	1
3	2469	480	1
3	2492	485	0
3	2510	490	1
3	2521	490	1
3	2544	495	0
3	2562	500	1
3	2573	500	1
3	2596	505	0
3	2614	510	1
3	2625	510	1
3	2648	515	0
3	2666	520	1
3	2677	520	1
3	2700	525	0
3	2718	530	1
3	2729	530	1
3	2752	535	0
3	2770	540	1
3	2781	540	1
3	2804	545	0
3	2822	550	1
3	2833	550	1
3	2856	555	0
3	2874	560	1
3	2885	560	1
3	2908	565	0
3	2926	570	1
3	2937	570	1
3	2960	575	0
3	2978	580	1
3	2989	580	1
3	3012	585	0
3	3030	590	1
3	3041	590	1
3	3064	595	0
3	3082	600	1
3	3093	600	1
3	3116	605	0
3	3134	610	1
3	3145	610	1
3	3168	615	0
3	3186	620	1
3	3197	620	1
3	3220	625	0
3	3238	630	1
3	3249	630	1
3	3272	635	0
3	3290	640	1
3	3301	640	1
3	3324	645	0
3	3342	650	1
3	3353	650	1
3	3376	655	0
3	3394	660	1
3	3405	660	1
3	3428	665	0
3	3446	670	1
3	3457	670	1
3	3480	675	0
3	3498	680	1
3	3509	680	1
3	3532	685	0
3	3550	690	1
3	3561	690	1
3	3584	695	0
3	3602	700	1
3	3613	700	1
3	3636	705	0
3	3654	710	1
3	3665	710	1
3	3688	715	0
3	3706	720	1
3	3717	720	1
3	3740	725	0
3	3758	730	1
3	3769	730	1
3	3792	735	0
3	3810	740	1
3	3821	740	1
3	3844	745	0
3	3862	750	1
3	3873	750	1
3	3896	755	0
3	3914	760	1
3	3925	760	1
3	3948	765	0
3	3966	770	1
3	3977	770	1
3	4000	775	0
3	4018	780	1
3	4029	780	1
3	4052	785	0
3	4070	790	1
3	4081	790	1
3	4104	795	0
3	4122	800	1
3	4133	800	1
3	4156	805	0
3	4174	810	1
3	4185	810	1
3	4208	815	0
3	4226	820	1
3	4237	820	1
3	4260	825	0
3	4278	830	1
3	4289	830	1
3	4312	835	0
3	4330	840	1
3	4341	840	1
3	4364	845	0
3	4382	850	1
3	4393	850	1
3	4416	855	0
3	4434	860	1
3	4445	860	1
3	4468	865	0
3	4486	870	1
3	4497	870	1
3	4520	875	0
3	4538	880	1
3	4549	880	1
3	4572	885	0
3	4590	890	1
3	4601	890	1
3	4624	895	0
3	4642	900	1
3	4653	900	1
3	4676	905	0
3	4694	910	1
3	4705	910	1
3	4728	915	0
3	4746	920	1
3	4757	920	1
3	4780	925	0
3	4798	930	1
3	4809	930	1
3	4832	935	0
3	4850	940	1
3	4861	940	1
3	4884	945	0
3	4902	950	1
3	4913	950	1
3	4936	955	0
3	4954	960	1
3	4965	960	1
3	4988	965	0
3	5006	970	1
3	5017	970	1
3	5040	975	0
3	5058	980	1
3	5069	980	1
3	5092	985	0
3	5110	990	1
3	5121	990	1
3	5144	995	0
3	5162	1000	1
3	5173	1000	1
3	5196	1005	0
3	5214	1010	1
3	5225	1010	1
3	5248	1015	0
3	5266	1020	1
3	5277	1020	1
3	5300	1025	0
3	5318	1030	1
3	5329	1030	1
3	5352	1035	0
3	5370	1040	1
3	5381	1040	1
3	5404	1045	0
3	5422	1050	1
3	5433	1050	1
3	5456	1055	0
3	5474	1060	1
3	5485	1060	1
3	5508	1065	0
3	5526	1070	1
3	5537	1070	1
3	5560	1075	0
3	5578	1080	1
3	5589	1080	1
3	5612	1085	0
3	5630	1090	1
3	5641	1090	1
3	5664	1095	0
3	5682	1100	1
3	5693	1100	1
3	5716	1105	0
3	5734	1110	1
3	5745	1110	1
3	5768	1115	0
3	5786	1120	1
3	5797	1120	1
3	5820	1125	0
3	5838	1130	1
3	5849	1130	1
3	5872	1135	0
3	5890	1140	1
3	5901	1140	1
3	5924	1145	0
3	5942	1150	1
3	5953	1150	1
3	5976	1155	0
3	5994	1160	1
3	6005	1160	1
3	6028	1165	0
3	6046	1170	1
3	6057	1170	1
3	6080	1175	0
3	6098	1180	1
3	6109	1180	1
3	6132	1185	0
3	6150	1190	1
3	6161	1190	1
3	6184	1195	0
3	6202	1200	1
3	6213	1200	1
3	6236	1205	0
3	6254	1210	1
3	6265	1210	1
3	6288	1215	0
3	6306	1220	1
3	6317	1220	1
3	6340	1225	0
3	6358	1230	1
3	6369	1230	1
3	6392	1235	0
3	6410	1240	1
3	6421	1240	1
3	6444	1245	0
3	6462	1250	1
3	6473	1250	1
3	6496	1255	0
3	6514	1260	1
3	6525	1260	1
3	6548	1265	0
3	6566	1270	1
3	6577	1270	1
3	6600	1275	0
3	6618	1280	1
3	6629	1280	1
3	6652	1285	0
3	6670	1290	1
3	6681	1290	1
3	6704	1295	0
3	6722	1300	1
3	6733	1300	1
3	6756	1305	0
3	6774	1310	1
3	6785	1310	1
3	6808	1315	0
3	6826	1320	1
3	6837	1320	1
3	6860	1325	0
3	6878	1330	1
3	6889	1330	1
3	6912	1335	0
3	6930	1340	1
3	6941	1340	1
3	6964	1345	0
3	6982	1350	1
3	6993	1350	1
3	7016	1355	0
3	7034	1360	1
3	7045	1360	1
3	7068	1365	0
3	7086	1370	1
3	7097	1370	1
3	7120	1375	0
3	7138	1380	1
3	7149	1380	1
3	7172	1385	0
3	7190	1390	1
3	7201	1390	1
3	7224	1395	0
3	7242	1400	1
3	7253	1400	1
3	7276	1405	0
3	7294	1410	1
3	7305	1410	1
3	7328	1415	0
3	7346	1420	1
3	7357	1420	1
3	7380	1425	0
3	7398	1430	1
3	7409	1430	1
3	7432	1435	0
3	7450	1440	1
3	7461	1440	1
3	7484	1445	0
3	7502	1450	1
3	7513	1450	1
3	7536	1455	0
3	7554	1460	1
3	7565	1460	1
3	7588	1465	0
3	7606	1470	1
3	7617	1470	1
3	7640	1475	0
3	7658	1480	1
3	7669	1480	1
3	7692	1485	0
3	7710	1490	1
3	7721	1490	1
3	7744	1495	0
3	7762	1500	1
3	7773	1500	1
3	7796	1505	0
3	7814	1510	1
3	7825	1510	1
3	7848	1515	0
3	7866	1520	1
3	7877	1520	1
3	7900	1525	0
3	7918	1530	1
3	7929	1530	1
3	7952	1535	0
3	7970	1540	1
3	7981	1540	1
3	8004	1545	0
3	8022	1550	1
3	8033	1550	1
3	8056	1555	0
3	8074	1560	1
3	8085	1560	1
3	8108	1565	0
3	8126	1570	1
3	8137	1570	1
3	8160	1575	0
3	8178	1580	1
3	8189	1580	1
3	8212	1585	0
3	8230	1590	1
3	8241	1590	1
3	8264	1595	0
3	8282	1600	1
3	8293	1600	1
3	8316	1605	0
3	8334	1610	1
3	8345	1610	1
3	8368	1615	0
3	8386	1620	1
3	8397	1620	1
3	8420	1625	0
3	8438	1630	1
3	8449	1630	1
3	8472	1635	0
3	8490	1640	1
3	8501	1640	1
3	8524	1645	0
3	8542	1650	1
3	8553	1650	1
3	8576	1655	0
3	8594	1660	1
3	8605	1660	1
3	8628	1665	0
3	8646	1670	1
3	8657	1670	1
3	8680	1675	0
3	8698	1680	1
3	8709	1680	1
3	8732	1685	0
3	8750	1690	1
3	8761	1690	1
3	8784	1695	0
3	8802	1700	1
3	8813	1700	1
3	8836	1705	0
3	8854	1710	1
3	8865	1710	1
3	8888	1715	0
3	8906	1720	1
3	8917	1720	1
3	8940	1725	0
3	8958	1730	1
3	8969	1730	1
3	8992	1735	0
3	9010	1740	1
3	9021	1740	1
3	9044	1745	0
3	9062	1750	1
3	9073	1750	1
3	9096	1755	0
3	9114	1760	1
3	9125	1760	1
3	9148	1765	0
3	9166	1770	1
3	9177	1770	1
3	9200	1775	0
3	9218	1780	1
3	9229	1780	1
3	9252	1785	0
3	9270	1790	1
3	9281	1790	1
3	9304	1795	0
3	9322	1800	1
3	9333	1800	1
3	9356	1805	0
3	9374	1810	1
3	9385	1810	1
3	9408	1815	0
3	9426	1820	1
3	9437	1820	1
3	9460	1825	0
3	9478	1830	1
3	9489	1830	1
3	9512	1835	0
3	9530	1840	1
3	9541	1840	1
3	9564	1845	0
3	9582	1850	1
3	9593	1850	1
3	9616	1855	0
3	9634	1860	1
3	9645	1860	1
3	9668	1865	0
3	9686	1870	1
3	9697	1870	1
3	9720	1875	0
3	9738	1880	1
3	9749	1880	1
3	9772	1885	0
3	9790	1890	1
3	9801	1890	1
3	9824	1895	0
3	9842	1900	1
3	9853	1900	1
3	9876	1905	0
3	9894	1910	1
3	9905	1910	1
3	9928	1915	0
3	9946	1920	1
3	9957	1920	1
3	9980	1925	0
3	9998	1930	1
3	10009	1930	1
3	10032	1935	0
3	10050	1940	1
3	10061	1940	1
3	10084	1945	0
3	10102	1950	1
3	10113	1950	1
3	10136	1955	0
3	10154	1960	1
3	10165	1960	1
3	10188	1965	0
3	10206	1970	1
3	10217	1970	1
3	10240	1975	0
3	10258	1980	1
3	10269	1980	1
3	10292	1985	0
3	10310	1990	1
3	10321	1990	1
3	10344	1995	0
3	10362	2000	1
3	10373	2000	1
3	10396	2005	0
3	10414	2010	1
3	10425	2010	1
3	10448	2015	0
3	10466	2020	1
3	10477	2020	1
3	10500	2025	0
3	10518	2030	1
3	10529	2030	1
3	10552	2035	0
3	10570	2040	1
3	10581	2040	1
3	10604	2045	0
3	10622	2050	1
3	10633	2050	1
3	10656	2055	0
3	10674	2060	1
3	10685	2060	1
3	10708	2065	0
3	10726	2070	1
3	10737	2070	1
3	10760	2075	0
3	10778	2080	1
3	10789	2080	1
3	10812	2085	0
3	10830	2090	1
3	10841	2090	1
3	10864	2095	0
3	10882	2100	1
3	10893	2100	1
3	10916	2105	0
3	10934	2110	1
3	10945	2110	1
3	10968	2115	0
3	10986	2120	1
3	10997	2120	1
3	11020	2125	0
3	11038	2130	1
3	11049	2130	1
3	11072	2135	0
3	11090	2140	1
3	11101	2140	1
3	11124	2145	0
3	11142	2150	1
3	11153	2150	1
3	11176	2155	0
3	11194	2160	1
3	11205	2160	1
3	11228	2165	0
3	11246	2170	1
3	11257	2170	1
3	11280	2175	0
3	11298	2180	1
3	11309	2180	1
3	11332	2185	0
3	11350	2190	1
3	11361	2190	1
3	11384	2195	0
3	11402	2200	1
3	11413	2200	1
3	11436	2205	0
3	11454	2210	1
3	11465	2210	1
3	11488	2215	0
3	11506	2220	1
3	11517	2220	1
3	11540	2225	0
3	11558	2230	1
3	11569	2230	1
3	11592	2235	0
3	11610	2240	1
3	11621	2240	1
3	11644	2245	0
3	11662	2250	1
3	11673	2250	1
3	11696	2255	0
3	11714	2260	1
3	11725	2260	1
3	11748	2265	0
3	11766	2270	1
3	11777	2270	1
3	11800	2275	0
3	11818	2280	1
3	11829	2280	1
3	11852	2285	0
3	11870	2290	1
3	11881	2290	1
3	11904	2295	0
3	11922	2300	1
3	11933	2300	1
3	11956	2305	0
3	11974	2310	1
3	11985	2310	1
3	12008	2315	0
3	12026	2320	1
3	12037	2320	1
3	12060	2325	0
3	12078	2330	1
3	12089	2330	1
3	12112	2335	0
3	12130	2340	1
3	12141	2340	1
3	12164	2345	0
3	12182	2350	1
3	12193	2350	1
3	12216	2355	0
3	12234	2360	1
3	12245	2360	1
3	12268	2365	0
3	12286	2370	1
3	12297	2370	1
3	12320	2375	0
3	12338	2380	1
3	12349	2380	1
3	12372	2385	0
3	12390	2390	1
3	12401	2390	1
3	12424	2395	0
3	12442	2400	1
3	12453	2400	1
3	12476	2405	0
3	12494	2410	1
3	12505	2410	1
3	12528	2415	0
3	12546	2420	1
3	12557	2420	1
3	12580	2425	0
3	12598	2430	1
3	12609	2430	1
3	12632	2435	0
3	12650	2440	1
3	12661	2440	1
3	12684	2445	0
3	12702	2450	1
3	12713	2450	1
3	12736	2455	0
3	12754	2460	1
3	12765	2460	1
3	12788	2465	0
3	12806	2470	1
3	12817	2470	1
3	12840	2475	0
3	12858	2480	1
3	12869	2480	1
3	12892	2485	0
3	12910	2490	1
3	12921	2490	1
3	12944	2495	0
3	12962	2500	1
3	12973	2500	1
3	12996	2505	0
3	13014	2510	1
3	13025	2510	1
3	13048	2515	0
3	13066	2520	1
3	13077	2520	1
3	13100	2525	0
3	13118	2530	1
3	13129	2530	1
3	13152	2535	0
3	13170	2540	1
3	13181	2540	1
3	13204	2545	0
3	13222	2550	1
3	13233	2550	1
3	13256	2555	0
3	13274	2560	1
3	13285	2560	1
3	13308	2565	0
3	13326	2570	1
3	13337	2570	1
3	13360	2575	0
3	13378	2580	1
3	13389	2580	1
3	13412	2585	0
3	13430	2590	1
3	13441	2590	1
3	13464	2595	0
3	13482	2600	1
3	13493	2600	1
3	13516	2605	0
3	13534	2610	1
3	13545	2610	1
3	13568	2615	0
3	13586	2620	1
3	13597	2620	1
3	13620	2625	0
3	13638	2630	1
3	13649	2630	1
3	13672	2635	0
3	13690	2640	1
3	13701	2640	1
3	13724	2645	0
3	13742	2650	1
3	13753	2650	1
3	13776	2655	0
3	13794	2660	1
3	13805	2660	1
3	13828	2665	0
3	13846	2670	1
3	13857	2670	1
3	13880	2675	0
3	13898	2680	1
3	13909	2680	1
3	13932	2685	0
3	13950	2690	1
3	13961	2690	1
3	13984	2695	0
3	14002	2700	1
3	14013	2700	1
3	14036	2705	0
3	14054	2710	1
3	14065	2710	1
3	14088	2715	0
3	14106	2720	1
3	14117	2720	1
3	14140	2725	0
3	14158	2730	1
3	14169	2730	1
3	14192	2735	0
3	14210	2740	1
3	14221	2740	1
3	14244	2745	0
3	14262	2750	1
3	14273	2750	1
3	14296	2755	0
3	14314	2760	1
3	14325	2760	1
3	14348	2765	0
3	14366	2770	1
3	14377	2770	1
3	14400	2775	0
3	14418	2780	1
3	14429	2780	1
3	14452	2785	0
3	14470	2790	1
3	14481	2790	1
3	14504	2795	0
3	14522	2800	1
3	14533	2800	1
3	14556	2805	0
3	14574	2810	1
3	14585	2810	1
3	14608	2815	0
3	14626	2820	1
3	14637	2820	1
3	14660	2825	0
3	14678	2830	1
3	14689	2830	1
3	14712	2835	0
3	14730	2840	1
3	14741	2840	1
3	14764	2845	0
3	14782	2850	1
3	14793	2850	1
3	14816	2855	0
3	14834	2860	1
3	14845	2860	1
3	14868	2865	0
3	14886	2870	1
3	14897	2870	1
3	14920	2875	0
3	14938	2880	1
3	14949	2880	1
3	14972	2885	0
3	14990	2890	1
3	15001	2890	1
3	15024	2895	0
3	15042	2900	1
3	15053	2900	1
3	15076	2905	0
3	15094	2910	1
3	15105	2910	1
3	15128	2915	0
3	15146	2920	1
3	15157	2920	1
3	15180	2925	0
3	15198	2930	1
3	15209	2930	1
3	15232	2935	0
3	15250	2940	1
3	15261	2940	1
3	15284	2945	0
3	15302	2950	1
3	15313	2950	1
3	15336	2955	0
3	15354	2960	1
3	15365	2960	1
3	15388	2965	0
3	15406	2970	1
3	15417	2970	1
3	15440	2975	0
3	15458	2980	1
3	15469	2980	1
3	15492	2985	0
3	15510	2990	1
3	15521	2990	1
3	15544	2995	0
3	15562	3000	1
3	15573	3000	1
3	15596	3005	0
3	15614	3010	1
3	15625	3010	1
3	15648	3015	0
3	15666	3020	1
3	15677	3020	1
3	15700	3025	0
3	15718	3030	1
3	15729	3030	1
3	15752	3035	0
3	15770	3040	1
3	15781	3040	1
3	15804	3045	0
3	15822	3050	1
3	15833	3050	1
3	15856	3055	0
3	15874	3060	1
3	15885	3060	1
3	15908	3065	0
3	15926	3070	1
3	15937	3070	1
3	15960	3075	0
3	15978	3080	1
3	15989	3080	1
3	16012	3085	0
3	16030	3090	1
3	16041	3090	1
3	16064	3095	0
3	16082	3100	1
3	16093	3100	1
3	16116	3105	0
3	16134	3110	1
3	16145	3110	1
3	16168	3115	0
3	16186	3120	1
3	16197	3120	1
3	16220	3125	0
3	16238	3130	1
3	16249	3130	1
3	16272	3135	0
3	16290	3140	1
3	16301	3140	1
3	16324	3145	0
3	16342	3150	1
3	16353	3150	1
3	16376	3155	0
3	16394	3160	1
3	16405	3160	1
3	16428	3165	0
3	16446	3170	1
3	16457	3170	1
3	16480	3175	0
3	16498	3180	1
3	16509	3180	1
3	16532	3185	0
3	16550	3190	1
3	16561	3190	1
3	16584	3195	0
3	16602	3200	1
3	16613	3200	1
3	16636	3205	0
3	16654	3210	1
3	16665	3210	1
3	16688	3215	0
3	16706	3220	1
3	16717	3220	1
3	16740	3225	0
3	16758	3230	1
3	16769	3230	1
3	16792	3235	0
3	16810	3240	1
3	16821	3240	1
3	16844	3245	0
3	16862	3250	1
3	16873	3250	1
3	16896	3255	0
3	16914	3260	1
3	16925	3260	1
3	16948	3265	0
3	16966	3270	1
3	16977	3270	1
3	17000	3275	0
3	17018	3280	1
3	17029	3280	1
3	17052	3285	0
3	17070	3290	1
3	17081	3290	1
3	17104	3295	0
3	17122	3300	1
3	17133	3300	1
3	17156	3305	0
3	17174	3310	1
3	17185	3310	1
3	17208	3315	0
3	17226	3320	1
3	17237	3320	1
3	17260	3325	0
3	17278	3330	1
3	17289	3330	1
3	17312	3335	0
3	17330	3340	1
3	17341	3340	1
3	17364	3345	0
3	17382	3350	1
3	17393	3350	1
3	17416	3355	0
3	17434	3360	1
3	17445	3360	1
3	17468	3365	0
3	17486	3370	1
3	17497	3370	1
3	17520	3375	0
3	17538	3380	1
3	17549	3380	1
3	17572	3385	0
3	17590	3390	1
3	17601	3390	1
3	17624	3395	0
3	17642	3400	1
3	17653	3400	1
3	17676	3405	0
3	17694	3410	1
3	17705	3410	1
3	17728	3415	0
3	17746	3420	1
3	17757	3420	1
3	17780	3425	0
3	17798	3430	1
3	17809	3430	1
3	17832	3435	0
3	17850	3440	1
3	17861	3440	1
3	17884	3445	0
3	17902	3450	1
3	17913	3450	1
3	17936	3455	0
3	17954	3460	1
3	17965	3460	1
3	17988	3465	0
3	18006	3470	1
3	18017	3470	1
3	18040	3475	0
3	18058	3480	1
3	18069	3480	1
3	18092	3485	0
3	18110	3490	1
3	18121	3490	1
3	18144	3495	0
3	18162	3500	1
3	18173	3500	1
3	18196	3505	0
3	18214	3510	1
3	18225	3510	1
3	18248	3515	0
3	18266	3520	1
3	18277	3520	1
3	18300	3525	0
3	18318	3530	1
3	18329	3530	1
3	18352	3535	0
3	18370	3540	1
3	18381	3540	1
3	18404	3545	0
3	18422	3550	1
3	18433	3550	1
3	18456	3555	0
3	18474	3560	1
3	18485	3560	1
3	18508	3565	0
3	18526	3570	1
3	18537	3570	1
3	18560	3575	0
3	18578	3580	1
3	18589	3580	1
3	18612	3585	0
3	18630	3590	1
3	18641	3590	1
3	18664	3595	0
3	18682	3600	1
3	18693	3600	1
4	5	5	0
4	15	10	1
4	26	10	1
4	50	15	0
4	67	20	1
4	78	20	1
4	102	25	0
4	119	30	1
4	130	30	1
4	154	35	0
4	171	40	1
4	182	40	1
4	206	45	0
4	223	50	1
4	234	50	1
4	258	55	0
4	275	60	1
4	286	60	1
4	310	65	0
4	327	70	1
4	338	70	1
4	362	75	0
4	379	80	1
4	390	80	1
4	414	85	0
4	431	90	1
4	442	90	1
4	466	95	0
4	483	100	1
4	494	100	1
4	518	105	0
4	535	110	1
4	546	110	1
4	570	115	0
4	587	120	1
4	598	120	1
4	622	125	0
4	639	130	1
4	650	130	1
4	674	135	0
4	691	140	1
4	702	140	1
4	726	145	0
4	743	150	1
4	754	150	1
4	778	155	0
4	795	160	1
4	806	160	1
4	830	165	0
4	847	170	1
4	858	170	1
4	882	175	0
4	899	180	1
4	910	180	1
4	934	185	0
4	951	190	1
4	962	190	1
4	986	195	0
4	1003	200	1
4	1014	200	1
4	1038	205	0
4	1055	210	1
4	1066	210	1
4	1090	215	0
4	1107	220	1
4	1118	220	1
4	1142	225	0
4	1159	230	1
4	1170	230	1
4	1194	235	0
4	1211	240	1
4	1222	240	1
4	1246	245	0
4	1263	250	1
4	1274	250	1
4	1298	255	0
4	1315	260	1
4	1326	260	1
4	1350	265	0
4	1367	270	1
4	1378	270	1
4	1402	275	0
4	1419	280	1
4	1430	280	1
4	1454	285	0
4	1471	290	1
4	1482	290	1
4	1506	295	0
4	1523	300	1
4	1534	300	1
4	1558	305	0
4	1575	310	1
4	1586	310	1
4	1610	315	0
4	1627	320	1
4	1638	320	1
4	1662	325	0
4	1679	330	1
4	1690	330	1
4	1714	335	0
4	1731	340	1
4	1742	340	1
4	1766	345	0
4	1783	350	1
4	1794	350	1
4	1818	355	0
4	1835	360	1
4	1846	360	1
4	1870	365	0
4	1887	370	1
4	1898	370	1
4	1922	375	0
4	1939	380	1
4	1950	380	1
4	1974	385	0
4	1991	390	1
4	2002	390	1
4	2026	395	0
4	2043	400	1
4	2054	400	1
4	2078	405	0
4	2095	410	1
4	2106	410	1
4	2130	415	0
4	2147	420	1
4	2158	420	1
4	2182	425	0
4	2199	430	1
4	2210	430	1
4	2234	435	0
4	2251	440	1
4	2262	440	1
4	2286	445	0
4	2303	450	1
4	2314	450	1
4	2338	455	0
4	2355	460	1
4	2366	460	1
4	2390	465	0
4	2407	470	1
4	2418	470	1
4	2442	475	0
4	2459	480	1
4	2470	480	1
4	2494	485	0
4	2511	490	1
4	2522	490	1
4	2546	495	0
4	2563	500	1
4	2574	500	1
4	2598	505	0
4	2615	510	1
4	2626	510	1
4	2650	515	0
4	2667	520	1
4	2678	520	1
4	2702	525	0
4	2719	530	1
4	2730	530	1
4	2754	535	0
4	2771	540	1
4	2782	540	1
4	2806	545	0
4	2823	550	1
4	2834	550	1
4	2858	555	0
4	2875	560	1
4	2886	560	1
4	2910	565	0
4	2927	570	1
4	2938	570	1
4	2962	575	0
4	2979	580	1
4	2990	580	1
4	3014	585	0
4	3031	590	1
4	3042	590	1
4	3066	595	0
4	3083	600	1
4	3094	600	1
4	3118	605	0
4	3135	610	1
4	3146	610	1
4	3170	615	0
4	3187	620	1
4	3198	620	1
4	3222	625	0
4	3239	630	1
4	3250	630	1
4	3274	635	0
4	3291	640	1
4	3302	640	1
4	3326	645	0
4	3343	650	1
4	3354	650	1
4	3378	655	0
4	3395	660	1
4	3406	660	1
4	3430	665	0
4	3447	670	1
4	3458	670	1
4	3482	675	0
4	3499	680	1
4	3510	680	1
4	3534	685	0
4	3551	690	1
4	3562	690	1
4	3586	695	0
4	3603	700	1
4	3614	700	1
4	3638	705	0
4	3655	710	1
4	3666	710	1
4	3690	715	0
4	3707	720	1
4	3718	720	1
4	3742	725	0
4	3759	730	1
4	3770	730	1
4	3794	735	0
4	3811	740	1
4	3822	740	1
4	3846	745	0
4	3863	750	1
4	3874	750	1
4	3898	755	0
4	3915	760	1
4	3926	760	1
4	3950	765	0
4	3967	770	1
4	3978	770	1
4	4002	775	0
4	4019	780	1
4	4030	780	1
4	4054	785	0
4	4071	790	1
4	4082	790	1
4	4106	795	0
4	4123	800	1
4	4134	800	1
4	4158	805	0
4	4175	810	1
4	4186	810	1
4	4210	815	0
4	4227	820	1
4	4238	820	1
4	4262	825	0
4	4279	830	1
4	4290	830	1
4	4314	835	0
4	4331	840	1
4	4342	840	1
4	4366	845	0
4	4383	850	1
4	4394	850	1
4	4418	855	0
4	4435	860	1
4	4446	860	1
4	4470	865	0
4	4487	870	1
4	4498	870	1
4	4522	875	0
4	4539	880	1
4	4550	880	1
4	4574	885	0
4	4591	890	1
4	4602	890	1
4	4626	895	0
4	4643	900	1
4	4654	900	1
4	4678	905	0
4	4695	910	1
4	4706	910	1
4	4730	915	0
4	4747	920	1
4	4758	920	1
4	4782	925	0
4	4799	930	1
4	4810	930	1
4	4834	935	0
4	4851	940	1
4	4862	940	1
4	4886	945	0
4	4903	950	1
4	4914	950	1
4	4938	955	0
4	4955	960	1
4	4966	960	1
4	4990	965	0
4	5007	970	1
4	5018	970	1
4	5042	975	0
4	5059	980	1
4	5070	980	1
4	5094	985	0
4	5111	990	1
4	5122	990	1
4	5146	995	0
4	5163	1000	1
4	5174	1000	1
4	5198	1005	0
4	5215	1010	1
4	5226	1010	1
4	5250	1015	0
4	5267	1020	1
4	5278	1020	1
4	5302	1025	0
4	5319	1030	1
4	5330	1030	1
4	5354	1035	0
4	5371	1040	1
4	5382	1040	1
4	5406	1045	0
4	5423	1050	1
4	5434	1050	1
4	5458	1055	0
4	5475	1060	1
4	5486	1060	1
4	5510	1065	0
4	5527	1070	1
4	5538	1070	1
4	5562	1075	0
4	5579	1080	1
4	5590	1080	1
4	5614	1085	0
4	5631	1090	1
4	5642	1090	1
4	5666	1095	0
4	5683	1100	1
4	5694	1100	1
4	5718	1105	0
4	5735	1110	1
4	5746	1110	1
4	5770	1115	0
4	5787	1120	1
4	5798	1120	1
4	5822	1125	0
4	5839	1130	1
4	5850	1130	1
4	5874	1135	0
4	5891	1140	1
4	5902	1140	1
4	5926	1145	0
4	5943	1150	1
4	5954	1150	1
4	5978	1155	0
4	5995	1160	1
4	6006	1160	1
4	6030	1165	0
4	6047	1170	1
4	6058	1170	1
4	6082	1175	0
4	6099	1180	1
4	6110	1180	1
4	6134	1185	0
4	6151	1190	1
4	6162	1190	1
4	6186	1195	0
4	6203	1200	1
4	6214	1200	1
4	6238	1205	0
4	6255	1210	1
4	6266	1210	1
4	6290	1215	0
4	6307	1220	1
4	6318	1220	1
4	6342	1225	0
4	6359	1230	1
4	6370	1230	1
4	6394	1235	0
4	6411	1240	1
4	6422	1240	1
4	6446	1245	0
4	6463	1250	1
4	6474	1250	1
4	6498	1255	0
4	6515	1260	1
4	6526	1260	1
4	6550	1265	0
4	6567	1270	1
4	6578	1270	1
4	6602	1275	0
4	6619	1280	1
4	6630	1280	1
4	6654	1285	0
4	6671	1290	1
4	6682	1290	1
4	6706	1295	0
4	6723	1300	1
4	6734	1300	1
4	6758	1305	0
4	6775	1310	1
4	6786	1310	1
4	6810	1315	0
4	6827	1320	1
4	6838	1320	1
4	6862	1325	0
4	6879	1330	1
4	6890	1330	1
4	6914	1335	0
4	6931	1340	1
4	6942	1340	1
4	6966	1345	0
4	6983	1350	1
4	6994	1350	1
4	7018	1355	0
4	7035	1360	1
4	7046	1360	1
4	7070	1365	0
4	7087	1370	1
4	7098	1370	1
4	7122	1375	0
4	7139	1380	1
4	7150	1380	1
4	7174	1385	0
4	7191	1390	1
4	7202	1390	1
4	7226	1395	0
4	7243	1400	1
4	7254	1400	1
4	7278	1405	0
4	7295	1410	1
4	7306	1410	1
4	7330	1415	0
4	7347	1420	1
4	7358	1420	1
4	7382	1425	0
4	7399	1430	1
4	7410	1430	1
4	7434	1435	0
4	7451	1440	1
4	7462	1440	1
4	7486	1445	0
4	7503	1450	1
4	7514	1450	1
4	7538	1455	0
4	7555	1460	1
4	7566	1460	1
4	7590	1465	0
4	7607	1470	1
4	7618	1470	1
4	7642	1475	0
4	7659	1480	1
4	7670	1480	1
4	7694	1485	0
4	7711	1490	1
4	7722	1490	1
4	7746	1495	0
4	7763	1500	1
4	7774	1500	1
4	7798	1505	0
4	7815	1510	1
4	7826	1510	1
4	7850	1515	0
4	7867	1520	1
4	7878	1520	1
4	7902	1525	0
4	7919	1530	1
4	7930	1530	1
4	7954	1535	0
4	7971	1540	1
4	7982	1540	1
4	8006	1545	0
4	8023	1550	1
4	8034	1550	1
4	8058	1555	0
4	8075	1560	1
4	8086	1560	1
4	8110	1565	0
4	8127	1570	1
4	8138	1570	1
4	8162	1575	0
4	8179	1580	1
4	8190	1580	1
4	8214	1585	0
4	8231	1590	1
4	8242	1590	1
4	8266	1595	0
4	8283	1600	1
4	8294	1600	1
4	8318	1605	0
4	8335	1610	1
4	8346	1610	1
4	8370	1615	0
4	8387	1620	1
4	8398	1620	1
4	8422	1625	0
4	8439	1630	1
4	8450	1630	1
4	8474	1635	0
4	8491	1640	1
4	8502	1640	1
4	8526	1645	0
4	8543	1650	1
4	8554	1650	1
4	8578	1655	0
4	8595	1660	1
4	8606	1660	1
4	8630	1665	0
4	8647	1670	1
4	8658	1670	1
4	8682	1675	0
4	8699	1680	1
4	8710	1680	1
4	8734	1685	0
4	8751	1690	1
4	8762	1690	1
4	8786	1695	0
4	8803	1700	1
4	8814	1700	1
4	8838	1705	0
4	8855	1710	1
4	8866	1710	1
4	8890	1715	0
4	8907	1720	1
4	8918	1720	1
4	8942	1725	0
4	8959	1730	1
4	8970	1730	1
4	8994	1735	0
4	9011	1740	1
4	9022	1740	1
4	9046	1745	0
4	9063	1750	1
4	9074	1750	1
4	9098	1755	0
4	9115	1760	1
4	9126	1760	1
4	9150	1765	0
4	9167	1770	1
4	9178	1770	1
4	9202	1775	0
4	9219	1780	1
4	9230	1780	1
4	9254	1785	0
4	9271	1790	1
4	9282	1790	1
4	9306	1795	0
4	9323	1800	1
4	9334	1800	1
4	9358	1805	0
4	9375	1810	1
4	9386	1810	1
4	9410	1815	0
4	9427	1820	1
4	9438	1820	1
4	9462	1825	0
4	9479	1830	1
4	9490	1830	1
4	9514	1835	0
4	9531	1840	1
4	9542	1840	1
4	9566	1845	0
4	9583	1850	1
4	9594	1850	1
4	9618	1855	0
4	9635	1860	1
4	9646	1860	1
4	9670	1865	0
4	9687	1870	1
4	9698	1870	1
4	9722	1875	0
4	9739	1880	1
4	9750	1880	1
4	9774	1885	0
4	9791	1890	1
4	9802	1890	1
4	9826	1895	0
4	9843	1900	1
4	9854	1900	1
4	9878	1905	0
4	9895	1910	1
4	9906	1910	1
4	9930	1915	0
4	9947	1920	1
4	9958	1920	1
4	9982	1925	0
4	9999	1930	1
4	10010	1930	1
4	10034	1935	0
4	10051	1940	1
4	10062	1940	1
4	10086	1945	0
4	10103	1950	1
4	10114	1950	1
4	10138	1955	0
4	10155	1960	1
4	10166	1960	1
4	10190	1965	0
4	10207	1970	1
4	10218	1970	1
4	10242	1975	0
4	10259	1980	1
4	10270	1980	1
4	10294	1985	0
4	10311	1990	1
4	10322	1990	1
4	10346	1995	0
4	10363	2000	1
4	10374	2000	1
4	10398	2005	0
4	10415	2010	1
4	10426	2010	1
4	10450	2015	0
4	10467	2020	1
4	10478	2020	1
4	10502	2025	0
4	10519	2030	1
4	10530	2030	1
4	10554	2035	0
4	10571	2040	1
4	10582	2040	1
4	10606	2045	0
4	10623	2050	1
4	10634	2050	1
4	10658	2055	0
4	10675	2060	1
4	10686	2060	1
4	10710	2065	0
4	10727	2070	1
4	10738	2070	1
4	10762	2075	0
4	10779	2080	1
4	10790	2080	1
4	10814	2085	0
4	10831	2090	1
4	10842	2090	1
4	10866	2095	0
4	10883	2100	1
4	10894	2100	1
4	10918	2105	0
4	10935	2110	1
4	10946	2110	1
4	10970	2115	0
4	10987	2120	1
4	10998	2120	1
4	11022	2125	0
4	11039	2130	1
4	11050	2130	1
4	11074	2135	0
4	11091	2140	1
4	11102	2140	1
4	11126	2145	0
4	11143	2150	1
4	11154	2150	1
4	11178	2155	0
4	11195	2160	1
4	11206	2160	1
4	11230	2165	0
4	11247	2170	1
4	11258	2170	1
4	11282	2175	0
4	11299	2180	1
4	11310	2180	1
4	11334	2185	0
4	11351	2190	1
4	11362	2190	1
4	11386	2195	0
4	11403	2200	1
4	11414	2200	1
4	11438	2205	0
4	11455	2210	1
4	11466	2210	1
4	11490	2215	0
4	11507	2220	1
4	11518	2220	1
4	11542	2225	0
4	11559	2230	1
4	11570	2230	1
4	11594	2235	0
4	11611	2240	1
4	11622	2240	1
4	11646	2245	0
4	11663	2250	1
4	11674	2250	1
4	11698	2255	0
4	11715	2260	1
4	11726	2260	1
4	11750	2265	0
4	11767	2270	1
4	11778	2270	1
4	11802	2275	0
4	11819	2280	1
4	11830	2280	1
4	11854	2285	0
4	11871	2290	1
4	11882	2290	1
4	11906	2295	0
4	11923	2300	1
4	11934	2300	1
4	11958	2305	0
4	11975	2310	1
4	11986	2310	1
4	12010	2315	0
4	12027	2320	1
4	12038	2320	1
4	12062	2325	0
4	12079	2330	1
4	12090	2330	1
4	12114	2335	0
4	12131	2340	1
4	12142	2340	1
4	12166	2345	0
4	12183	2350	1
4	12194	2350	1
4	12218	2355	0
4	12235	2360	1
4	12246	2360	1
4	12270	2365	0
4	12287	2370	1
4	12298	2370	1
4	12322	2375	0
4	12339	2380	1
4	12350	2380	1
4	12374	2385	0
4	12391	2390	1
4	12402	2390	1
4	12426	2395	0
4	12443	2400	1
4	12454	2400	1
4	12478	2405	0
4	12495	2410	1
4	12506	2410	1
4	12530	2415	0
4	12547	2420	1
4	12558	2420	1
4	12582	2425	0
4	12599	2430	1
4	12610	2430	1
4	12634	2435	0
4	12651	2440	1
4	12662	2440	1
4	12686	2445	0
4	12703	2450	1
4	12714	2450	1
4	12738	2455	0
4	12755	2460	1
4	12766	2460	1
4	12790	2465	0
4	12807	2470	1
4	12818	2470	1
4	12842	2475	0
4	12859	2480	1
4	12870	2480	1
4	12894	2485	0
4	12911	2490	1
4	12922	2490	1
4	12946	2495	0
4	12963	2500	1
4	12974	2500	1
4	12998	2505	0
4	13015	2510	1
4	13026	2510	1
4	13050	2515	0
4	13067	2520	1
4	13078	2520	1
4	13102	2525	0
4	13119	2530	1
4	13130	2530	1
4	13154	2535	0
4	13171	2540	1
4	13182	2540	1
4	13206	2545	0
4	13223	2550	1
4	13234	2550	1
4	13258	2555	0
4	13275	2560	1
4	13286	2560	1
4	13310	2565	0
4	13327	2570	1
4	13338	2570	1
4	13362	2575	0
4	13379	2580	1
4	13390	2580	1
4	13414	2585	0
4	13431	2590	1
4	13442	2590	1
4	13466	2595	0
4	13483	2600	1
4	13494	2600	1
4	13518	2605	0
4	13535	2610	1
4	13546	2610	1
4	13570	2615	0
4	13587	2620	1
4	13598	2620	1
4	13622	2625	0
4	13639	2630	1
4	13650	2630	1
4	13674	2635	0
4	13691	2640	1
4	13702	2640	1
4	13726	2645	0
4	13743	2650	1
4	13754	2650	1
4	13778	2655	0
4	13795	2660	1
4	13806	2660	1
4	13830	2665	0
4	13847	2670	1
4	13858	2670	1
4	13882	2675	0
4	13899	2680	1
4	13910	2680	1
4	13934	2685	0
4	13951	2690	1
4	13962	2690	1
4	13986	2695	0
4	14003	2700	1
4	14014	2700	1
4	14038	2705	0
4	14055	2710	1
4	14066	2710	1
4	14090	2715	0
4	14107	2720	1
4	14118	2720	1
4	14142	2725	0
4	14159	2730	1
4	14170	2730	1
4	14194	2735	0
4	14211	2740	1
4	14222	2740	1
4	14246	2745	0
4	14263	2750	1
4	14274	2750	1
4	14298	2755	0
4	14315	2760	1
4	14326	2760	1
4	14350	2765	0
4	14367	2770	1
4	14378	2770	1
4	14402	2775	0
4	14419	2780	1
4	14430	2780	1
4	14454	2785	0
4	14471	2790	1
4	14482	2790	1
4	14506	2795	0
4	14523	2800	1
4	14534	2800	1
4	14558	2805	0
4	14575	2810	1
4	14586	2810	1
4	14610	2815	0
4	14627	2820	1
4	14638	2820	1
4	14662	2825	0
4	14679	2830	1
4	14690	2830	1
4	14714	2835	0
4	14731	2840	1
4	14742	2840	1
4	14766	2845	0
4	14783	2850	1
4	14794	2850	1
4	14818	2855	0
4	14835	2860	1
4	14846	2860	1
4	14870	2865	0
4	14887	2870	1
4	14898	2870	1
4	14922	2875	0
4	14939	2880	1
4	14950	2880	1
4	14974	2885	0
4	14991	2890	1
4	15002	2890	1
4	15026	2895	0
4	15043	2900	1
4	15054	2900	1
4	15078	2905	0
4	15095	2910	1
4	15106	2910	1
4	15130	2915	0
4	15147	2920	1
4	15158	2920	1
4	15182	2925	0
4	15199	2930	1
4	15210	2930	1
4	15234	2935	0
4	15251	2940	1
4	15262	2940	1
4	15286	2945	0
4	15303	2950	1
4	15314	2950	1
4	15338	2955	0
4	15355	2960	1
4	15366	2960	1
4	15390	2965	0
4	15407	2970	1
4	15418	2970	1
4	15442	2975	0
4	15459	2980	1
4	15470	2980	1
4	15494	2985	0
4	15511	2990	1
4	15522	2990	1
4	15546	2995	0
4	15563	3000	1
4	15574	3000	1
4	15598	3005	0
4	15615	3010	1
4	15626	3010	1
4	15650	3015	0
4	15667	3020	1
4	15678	3020	1
4	15702	3025	0
4	15719	3030	1
4	15730	3030	1
4	15754	3035	0
4	15771	3040	1
4	15782	3040	1
4	15806	3045	0
4	15823	3050	1
4	15834	3050	1
4	15858	3055	0
4	15875	3060	1
4	15886	3060	1
4	15910	3065	0
4	15927	3070	1
4	15938	3070	1
4	15962	3075	0
4	15979	3080	1
4	15990	3080	1
4	16014	3085	0
4	16031	3090	1
4	16042	3090	1
4	16066	3095	0
4	16083	3100	1
4	16094	3100	1
4	16118	3105	0
4	16135	3110	1
4	16146	3110	1
4	16170	3115	0
4	16187	3120	1
4	16198	3120	1
4	16222	3125	0
4	16239	3130	1
4	16250	3130	1
4	16274	3135	0
4	16291	3140	1
4	16302	3140	1
4	16326	3145	0
4	16343	3150	1
4	16354	3150	1
4	16378	3155	0
4	16395	3160	1
4	16406	3160	1
4	16430	3165	0
4	16447	3170	1
4	16458	3170	1
4	16482	3175	0
4	16499	3180	1
4	16510	3180	1
4	16534	3185	0
4	16551	3190	1
4	16562	3190	1
4	16586	3195	0
4	16603	3200	1
4	16614	3200	1
4	16638	3205	0
4	16655	3210	1
4	16666	3210	1
4	16690	3215	0
4	16707	3220	1
4	16718	3220	1
4	16742	3225	0
4	16759	3230	1
4	16770	3230	1
4	16794	3235	0
4	16811	3240	1
4	16822	3240	1
4	16846	3245	0
4	16863	3250	1
4	16874	3250	1
4	16898	3255	0
4	16915	3260	1
4	16926	3260	1
4	16950	3265	0
4	16967	3270	1
4	16978	3270	1
4	17002	3275	0
4	17019	3280	1
4	17030	3280	1
4	17054	3285	0
4	17071	3290	1
4	17082	3290	1
4	17106	3295	0
4	17123	3300	1
4	17134	3300	1
4	17158	3305	0
4	17175	3310	1
4	17186	3310	1
4	17210	3315	0
4	17227	3320	1
4	17238	3320	1
4	17262	3325	0
4	17279	3330	1
4	17290	3330	1
4	17314	3335	0
4	17331	3340	1
4	17342	3340	1
4	17366	3345	0
4	17383	3350	1
4	17394	3350	1
4	17418	3355	0
4	17435	3360	1
4	17446	3360	1
4	17470	3365	0
4	17487	3370	1
4	17498	3370	1
4	17522	3375	0
4	17539	3380	1
4	17550	3380	1
4	17574	3385	0
4	17591	3390	1
4	17602	3390	1
4	17626	3395	0
4	17643	3400	1
4	17654	3400	1
4	17678	3405	0
4	17695	3410	1
4	17706	3410	1
4	17730	3415	0
4	17747	3420	1
4	17758	3420	1
4	17782	3425	0
4	17799	3430	1
4	17810	3430	1
4	17834	3435	0
4	17851	3440	1
4	17862	3440	1
4	17886	3445	0
4	17903	3450	1
4	17914	3450	1
4	17938	3455	0
4	17955	3460	1
4	17966	3460	1
4	17990	3465	0
4	18007	3470	1
4	18018	3470	1
4	18042	3475	0
4	18059	3480	1
4	18070	3480	1
4	18094	3485	0
4	18111	3490	1
4	18122	3490	1
4	18146	3495	0
4	18163	3500	1
4	18174	3500	1
4	18198	3505	0
4	18215	3510	1
4	18226	3510	1
4	18250	3515	0
4	18267	3520	1
4	18278	3520	1
4	18302	3525	0
4	18319	3530	1
4	18330	3530	1
4	18354	3535	0
4	18371	3540	1
4	18382	3540	1
4	18406	3545	0
4	18423	3550	1
4	18434	3550	1
4	18458	3555	0
4	18475	3560	1
4	18486	3560	1
4	18510	3565	0
4	18527	3570	1
4	18538	3570	1
4	18562	3575	0
4	18579	3580	1
4	18590	3580	1
4	18614	3585	0
4	18631	3590	1
4	18642	3590	1
4	18666	3595	0
4	18683	3600	1
4	18694	3600	1
5	6	5	0
5	16	10	1
5	27	10	1
5	52	15	0
5	68	20	1
5	79	20	1
5	104	25	0
5	120	30	1
5	131	30	1
5	156	35	0
5	172	40	1
5	183	40	1
5	208	45	0
5	224	50	1
5	235	50	1
5	260	55	0
5	276	60	1
5	287	60	1
5	312	65	0
5	328	70	1
5	339	70	1
5	364	75	0
5	380	80	1
5	391	80	1
5	416	85	0
5	432	90	1
5	443	90	1
5	468	95	0
5	484	100	1
5	495	100	1
5	520	105	0
5	536	110	1
5	547	110	1
5	572	115	0
5	588	120	1
5	599	120	1
5	624	125	0
5	640	130	1
5	651	130	1
5	676	135	0
5	692	140	1
5	703	140	1
5	728	145	0
5	744	150	1
5	755	150	1
5	780	155	0
5	796	160	1
5	807	160	1
5	832	165	0
5	848	170	1
5	859	170	1
5	884	175	0
5	900	180	1
5	911	180	1
5	936	185	0
5	952	190	1
5	963	190	1
5	988	195	0
5	1004	200	1
5	1015	200	1
5	1040	205	0
5	1056	210	1
5	1067	210	1
5	1092	215	0
5	1108	220	1
5	1119	220	1
5	1144	225	0
5	1160	230	1
5	1171	230	1
5	1196	235	0
5	1212	240	1
5	1223	240	1
5	1248	245	0
5	1264	250	1
5	1275	250	1
5	1300	255	0
5	1316	260	1
5	1327	260	1
5	1352	265	0
5	1368	270	1
5	1379	270	1
5	1404	275	0
5	1420	280	1
5	1431	280	1
5	1456	285	0
5	1472	290	1
5	1483	290	1
5	1508	295	0
5	1524	300	1
5	1535	300	1
5	1560	305	0
5	1576	310	1
5	1587	310	1
5	1612	315	0
5	1628	320	1
5	1639	320	1
5	1664	325	0
5	1680	330	1
5	1691	330	1
5	1716	335	0
5	1732	340	1
5	1743	340	1
5	1768	345	0
5	1784	350	1
5	1795	350	1
5	1820	355	0
5	1836	360	1
5	1847	360	1
5	1872	365	0
5	1888	370	1
5	1899	370	1
5	1924	375	0
5	1940	380	1
5	1951	380	1
5	1976	385	0
5	1992	390	1
5	2003	390	1
5	2028	395	0
5	2044	400	1
5	2055	400	1
5	2080	405	0
5	2096	410	1
5	2107	410	1
5	2132	415	0
5	2148	420	1
5	2159	420	1
5	2184	425	0
5	2200	430	1
5	2211	430	1
5	2236	435	0
5	2252	440	1
5	2263	440	1
5	2288	445	0
5	2304	450	1
5	2315	450	1
5	2340	455	0
5	2356	460	1
5	2367	460	1
5	2392	465	0
5	2408	470	1
5	2419	470	1
5	2444	475	0
5	2460	480	1
5	2471	480	1
5	2496	485	0
5	2512	490	1
5	2523	490	1
5	2548	495	0
5	2564	500	1
5	2575	500	1
5	2600	505	0
5	2616	510	1
5	2627	510	1
5	2652	515	0
5	2668	520	1
5	2679	520	1
5	2704	525	0
5	2720	530	1
5	2731	530	1
5	2756	535	0
5	2772	540	1
5	2783	540	1
5	2808	545	0
5	2824	550	1
5	2835	550	1
5	2860	555	0
5	2876	560	1
5	2887	560	1
5	2912	565	0
5	2928	570	1
5	2939	570	1
5	2964	575	0
5	2980	580	1
5	2991	580	1
5	3016	585	0
5	3032	590	1
5	3043	590	1
5	3068	595	0
5	3084	600	1
5	3095	600	1
5	3120	605	0
5	3136	610	1
5	3147	610	1
5	3172	615	0
5	3188	620	1
5	3199	620	1
5	3224	625	0
5	3240	630	1
5	3251	630	1
5	3276	635	0
5	3292	640	1
5	3303	640	1
5	3328	645	0
5	3344	650	1
5	3355	650	1
5	3380	655	0
5	3396	660	1
5	3407	660	1
5	3432	665	0
5	3448	670	1
5	3459	670	1
5	3484	675	0
5	3500	680	1
5	3511	680	1
5	3536	685	0
5	3552	690	1
5	3563	690	1
5	3588	695	0
5	3604	700	1
5	3615	700	1
5	3640	705	0
5	3656	710	1
5	3667	710	1
5	3692	715	0
5	3708	720	1
5	3719	720	1
5	3744	725	0
5	3760	730	1
5	3771	730	1
5	3796	735	0
5	3812	740	1
5	3823	740	1
5	3848	745	0
[...]
47	6405	1235	0
47	6457	1245	0
47	6509	1255	0
47	6561	1265	0
47	6613	1275	0
47	6665	1285	0
47	6717	1295	0
47	6769	1305	0
47	6821	1315	0
47	6873	1325	0
47	6925	1335	0
47	6977	1345	0
47	7029	1355	0
47	7081	1365	0
47	7133	1375	0
47	7185	1385	0
47	7237	1395	0
47	7289	1405	0
47	7341	1415	0
47	7393	1425	0
47	7445	1435	0
47	7497	1445	0
47	7549	1455	0
47	7601	1465	0
47	7653	1475	0
47	7705	1485	0
47	7757	1495	0
47	7809	1505	0
47	7861	1515	0
47	7913	1525	0
47	7965	1535	0
47	8017	1545	0
47	8069	1555	0
47	8121	1565	0
47	8173	1575	0
47	8225	1585	0
47	8277	1595	0
47	8329	1605	0
47	8381	1615	0
47	8433	1625	0
47	8485	1635	0
47	8537	1645	0
47	8589	1655	0
47	8641	1665	0
47	8693	1675	0
47	8745	1685	0
47	8797	1695	0
47	8849	1705	0
47	8901	1715	0
47	8953	1725	0
47	9005	1735	0
47	9057	1745	0
47	9109	1755	0
47	9161	1765	0
47	9213	1775	0
47	9265	1785	0
47	9317	1795	0
47	9369	1805	0
47	9421	1815	0
47	9473	1825	0
47	9525	1835	0
47	9577	1845	0
47	9629	1855	0
47	9681	1865	0
47	9733	1875	0
47	9785	1885	0
47	9837	1895	0
47	9889	1905	0
47	9941	1915	0
47	9993	1925	0
47	10045	1935	0
47	10097	1945	0
47	10149	1955	0
47	10201	1965	0
47	10253	1975	0
47	10305	1985	0
47	10357	1995	0
47	10409	2005	0
47	10461	2015	0
47	10513	2025	0
47	10565	2035	0
47	10617	2045	0
47	10669	2055	0
47	10721	2065	0
47	10773	2075	0
47	10825	2085	0
47	10877	2095	0
47	10929	2105	0
47	10981	2115	0
47	11033	2125	0
47	11085	2135	0
47	11137	2145	0
47	11189	2155	0
47	11241	2165	0
47	11293	2175	0
47	11345	2185	0
47	11397	2195	0
47	11449	2205	0
47	11501	2215	0
47	11553	2225	0
47	11605	2235	0
47	11657	2245	0
47	11709	2255	0
47	11761	2265	0
47	11813	2275	0
47	11865	2285	0
47	11917	2295	0
47	11969	2305	0
47	12021	2315	0
47	12073	2325	0
47	12125	2335	0
47	12177	2345	0
47	12229	2355	0
47	12281	2365	0
47	12333	2375	0
47	12385	2385	0
47	12437	2395	0
47	12489	2405	0
47	12541	2415	0
47	12593	2425	0
47	12645	2435	0
47	12697	2445	0
47	12749	2455	0
47	12801	2465	0
47	12853	2475	0
47	12905	2485	0
47	12957	2495	0
47	13009	2505	0
47	13061	2515	0
47	13113	2525	0
47	13165	2535	0
47	13217	2545	0
47	13269	2555	0
47	13321	2565	0
47	13373	2575	0
47	13425	2585	0
47	13477	2595	0
47	13529	2605	0
47	13581	2615	0
47	13633	2625	0
47	13685	2635	0
47	13737	2645	0
47	13789	2655	0
47	13841	2665	0
47	13893	2675	0
47	13945	2685	0
47	13997	2695	0
47	14049	2705	0
47	14101	2715	0
47	14153	2725	0
47	14205	2735	0
47	14257	2745	0
47	14309	2755	0
47	14361	2765	0
47	14413	2775	0
47	14465	2785	0
47	14517	2795	0
47	14569	2805	0
47	14621	2815	0
47	14673	2825	0
47	14725	2835	0
47	14777	2845	0
47	14829	2855	0
47	14881	2865	0
47	14933	2875	0
47	14985	2885	0
47	15037	2895	0
47	15089	2905	0
47	15141	2915	0
47	15193	2925	0
47	15245	2935	0
47	15297	2945	0
47	15349	2955	0
47	15401	2965	0
47	15453	2975	0
47	15505	2985	0
47	15557	2995	0
47	15609	3005	0
47	15661	3015	0
47	15713	3025	0
47	15765	3035	0
47	15817	3045	0
47	15869	3055	0
47	15921	3065	0
47	15973	3075	0
47	16025	3085	0
47	16077	3095	0
47	16129	3105	0
47	16181	3115	0
47	16233	3125	0
47	16285	3135	0
47	16337	3145	0
47	16389	3155	0
47	16441	3165	0
47	16493	3175	0
47	16545	3185	0
47	16597	3195	0
47	16649	3205	0
47	16701	3215	0
47	16753	3225	0
47	16805	3235	0
47	16857	3245	0
47	16909	3255	0
47	16961	3265	0
47	17013	3275	0
47	17065	3285	0
47	17117	3295	0
47	17169	3305	0
47	17221	3315	0
47	17273	3325	0
47	17325	3335	0
47	17377	3345	0
47	17429	3355	0
47	17481	3365	0
47	17533	3375	0
47	17585	3385	0
47	17637	3395	0
47	17689	3405	0
47	17741	3415	0
47	17793	3425	0
47	17845	3435	0
47	17897	3445	0
47	17949	3455	0
47	18001	3465	0
47	18053	3475	0
47	18105	3485	0
47	18157	3495	0
47	18209	3505	0
47	18261	3515	0
47	18313	3525	0
47	18365	3535	0
47	18417	3545	0
47	18469	3555	0
47	18521	3565	0
47	18573	3575	0
47	18625	3585	0
47	18677	3595	0
48	63	15	1
48	115	25	1
48	167	35	1
48	219	45	1
48	271	55	1
48	323	65	1
48	375	75	1
48	427	85	1
48	479	95	1
48	531	105	1
48	583	115	1
48	635	125	1
48	687	135	1
48	739	145	1
48	791	155	1
48	843	165	1
48	895	175	1
48	947	185	1
48	999	195	1
48	1051	205	1
48	1103	215	1
48	1155	225	1
48	1207	235	1
48	1259	245	1
48	1311	255	1
48	1363	265	1
48	1415	275	1
48	1467	285	1
48	1519	295	1
48	1571	305	1
48	1623	315	1
48	1675	325	1
48	1727	335	1
48	1779	345	1
48	1831	355	1
48	1883	365	1
48	1935	375	1
48	1987	385	1
48	2039	395	1
48	2091	405	1
48	2143	415	1
48	2195	425	1
48	2247	435	1
48	2299	445	1
48	2351	455	1
48	2403	465	1
48	2455	475	1
48	2507	485	1
48	2559	495	1
48	2611	505	1
48	2663	515	1
48	2715	525	1
48	2767	535	1
48	2819	545	1
48	2871	555	1
48	2923	565	1
48	2975	575	1
48	3027	585	1
48	3079	595	1
48	3131	605	1
48	3183	615	1
48	3235	625	1
48	3287	635	1
48	3339	645	1
48	3391	655	1
48	3443	665	1
48	3495	675	1
48	3547	685	1
48	3599	695	1
48	3651	705	1
48	3703	715	1
48	3755	725	1
48	3807	735	1
48	3859	745	1
48	3911	755	1
48	3963	765	1
48	4015	775	1
48	4067	785	1
48	4119	795	1
48	4171	805	1
48	4223	815	1
48	4275	825	1
48	4327	835	1
48	4379	845	1
48	4431	855	1
48	4483	865	1
48	4535	875	1
48	4587	885	1
48	4639	895	1
48	4691	905	1
48	4743	915	1
48	4795	925	1
48	4847	935	1
48	4899	945	1
48	4951	955	1
48	5003	965	1
48	5055	975	1
48	5107	985	1
48	5159	995	1
48	5211	1005	1
48	5263	1015	1
48	5315	1025	1
48	5367	1035	1
48	5419	1045	1
48	5471	1055	1
48	5523	1065	1
48	5575	1075	1
48	5627	1085	1
48	5679	1095	1
48	5731	1105	1
48	5783	1115	1
48	5835	1125	1
48	5887	1135	1
48	5939	1145	1
48	5991	1155	1
48	6043	1165	1
48	6095	1175	1
48	6147	1185	1
48	6199	1195	1
48	6251	1205	1
48	6303	1215	1
48	6355	1225	1
48	6407	1235	1
48	6459	1245	1
48	6511	1255	1
48	6563	1265	1
48	6615	1275	1
48	6667	1285	1
48	6719	1295	1
48	6771	1305	1
48	6823	1315	1
48	6875	1325	1
48	6927	1335	1
48	6979	1345	1
48	7031	1355	1
48	7083	1365	1
48	7135	1375	1
48	7187	1385	1
48	7239	1395	1
48	7291	1405	1
48	7343	1415	1
48	7395	1425	1
48	7447	1435	1
48	7499	1445	1
48	7551	1455	1
48	7603	1465	1
48	7655	1475	1
48	7707	1485	1
48	7759	1495	1
48	7811	1505	1
48	7863	1515	1
48	7915	1525	1
48	7967	1535	1
48	8019	1545	1
48	8071	1555	1
48	8123	1565	1
48	8175	1575	1
48	8227	1585	1
48	8279	1595	1
48	8331	1605	1
48	8383	1615	1
48	8435	1625	1
48	8487	1635	1
48	8539	1645	1
48	8591	1655	1
48	8643	1665	1
48	8695	1675	1
48	8747	1685	1
48	8799	1695	1
48	8851	1705	1
48	8903	1715	1
48	8955	1725	1
48	9007	1735	1
48	9059	1745	1
48	9111	1755	1
48	9163	1765	1
48	9215	1775	1
48	9267	1785	1
48	9319	1795	1
48	9371	1805	1
48	9423	1815	1
48	9475	1825	1
48	9527	1835	1
48	9579	1845	1
48	9631	1855	1
48	9683	1865	1
48	9735	1875	1
48	9787	1885	1
48	9839	1895	1
48	9891	1905	1
48	9943	1915	1
48	9995	1925	1
48	10047	1935	1
48	10099	1945	1
48	10151	1955	1
48	10203	1965	1
48	10255	1975	1
48	10307	1985	1
48	10359	1995	1
48	10411	2005	1
48	10463	2015	1
48	10515	2025	1
48	10567	2035	1
48	10619	2045	1
48	10671	2055	1
48	10723	2065	1
48	10775	2075	1
48	10827	2085	1
48	10879	2095	1
48	10931	2105	1
48	10983	2115	1
48	11035	2125	1
48	11087	2135	1
48	11139	2145	1
48	11191	2155	1
48	11243	2165	1
48	11295	2175	1
48	11347	2185	1
48	11399	2195	1
48	11451	2205	1
48	11503	2215	1
48	11555	2225	1
48	11607	2235	1
48	11659	2245	1
48	11711	2255	1
48	11763	2265	1
48	11815	2275	1
48	11867	2285	1
48	11919	2295	1
48	11971	2305	1
48	12023	2315	1
48	12075	2325	1
48	12127	2335	1
48	12179	2345	1
48	12231	2355	1
48	12283	2365	1
48	12335	2375	1
48	12387	2385	1
48	12439	2395	1
48	12491	2405	1
48	12543	2415	1
48	12595	2425	1
48	12647	2435	1
48	12699	2445	1
48	12751	2455	1
48	12803	2465	1
48	12855	2475	1
48	12907	2485	1
48	12959	2495	1
48	13011	2505	1
48	13063	2515	1
48	13115	2525	1
48	13167	2535	1
48	13219	2545	1
48	13271	2555	1
48	13323	2565	1
48	13375	2575	1
48	13427	2585	1
48	13479	2595	1
48	13531	2605	1
48	13583	2615	1
48	13635	2625	1
48	13687	2635	1
48	13739	2645	1
48	13791	2655	1
48	13843	2665	1
48	13895	2675	1
48	13947	2685	1
48	13999	2695	1
48	14051	2705	1
48	14103	2715	1
48	14155	2725	1
48	14207	2735	1
48	14259	2745	1
48	14311	2755	1
48	14363	2765	1
48	14415	2775	1
48	14467	2785	1
48	14519	2795	1
48	14571	2805	1
48	14623	2815	1
48	14675	2825	1
48	14727	2835	1
48	14779	2845	1
48	14831	2855	1
48	14883	2865	1
48	14935	2875	1
48	14987	2885	1
48	15039	2895	1
48	15091	2905	1
48	15143	2915	1
48	15195	2925	1
48	15247	2935	1
48	15299	2945	1
48	15351	2955	1
48	15403	2965	1
48	15455	2975	1
48	15507	2985	1
48	15559	2995	1
48	15611	3005	1
48	15663	3015	1
48	15715	3025	1
48	15767	3035	1
48	15819	3045	1
48	15871	3055	1
48	15923	3065	1
48	15975	3075	1
48	16027	3085	1
48	16079	3095	1
48	16131	3105	1
48	16183	3115	1
48	16235	3125	1
48	16287	3135	1
48	16339	3145	1
48	16391	3155	1
48	16443	3165	1
48	16495	3175	1
48	16547	3185	1
48	16599	3195	1
48	16651	3205	1
48	16703	3215	1
48	16755	3225	1
48	16807	3235	1
48	16859	3245	1
48	16911	3255	1
48	16963	3265	1
48	17015	3275	1
48	17067	3285	1
48	17119	3295	1
48	17171	3305	1
48	17223	3315	1
48	17275	3325	1
48	17327	3335	1
48	17379	3345	1
48	17431	3355	1
48	17483	3365	1
48	17535	3375	1
48	17587	3385	1
48	17639	3395	1
48	17691	3405	1
48	17743	3415	1
48	17795	3425	1
48	17847	3435	1
48	17899	3445	1
48	17951	3455	1
48	18003	3465	1
48	18055	3475	1
48	18107	3485	1
48	18159	3495	1
48	18211	3505	1
48	18263	3515	1
48	18315	3525	1
48	18367	3535	1
48	18419	3545	1
48	18471	3555	1
48	18523	3565	1
48	18575	3575	1
48	18627	3585	1
48	18679	3595	1
49	63	15	5
49	115	25	5
49	167	35	5
49	219	45	5
49	271	55	5
49	323	65	5
49	375	75	5
49	427	85	5
49	479	95	5
49	531	105	5
49	583	115	5
49	635	125	5
49	687	135	5
49	739	145	5
49	791	155	5
49	843	165	5
49	895	175	5
49	947	185	5
49	999	195	5
49	1051	205	5
49	1103	215	5
49	1155	225	5
49	1207	235	5
49	1259	245	5
49	1311	255	5
49	1363	265	5
49	1415	275	5
49	1467	285	5
49	1519	295	5
49	1571	305	5
49	1623	315	5
49	1675	325	5
49	1727	335	5
49	1779	345	5
49	1831	355	5
49	1883	365	5
49	1935	375	5
49	1987	385	5
49	2039	395	5
49	2091	405	5
49	2143	415	5
49	2195	425	5
49	2247	435	5
49	2299	445	5
49	2351	455	5
49	2403	465	5
49	2455	475	5
49	2507	485	5
49	2559	495	5
49	2611	505	5
49	2663	515	5
49	2715	525	5
49	2767	535	5
49	2819	545	5
49	2871	555	5
49	2923	565	5
49	2975	575	5
49	3027	585	5
49	3079	595	5
49	3131	605	5
49	3183	615	5
49	3235	625	5
49	3287	635	5
49	3339	645	5
49	3391	655	5
49	3443	665	5
49	3495	675	5
49	3547	685	5
49	3599	695	5
49	3651	705	5
49	3703	715	5
49	3755	725	5
49	3807	735	5
49	3859	745	5
49	3911	755	5
49	3963	765	5
49	4015	775	5
49	4067	785	5
49	4119	795	5
49	4171	805	5
49	4223	815	5
49	4275	825	5
49	4327	835	5
49	4379	845	5
49	4431	855	5
49	4483	865	5
49	4535	875	5
49	4587	885	5
49	4639	895	5
49	4691	905	5
49	4743	915	5
49	4795	925	5
49	4847	935	5
49	4899	945	5
49	4951	955	5
49	5003	965	5
49	5055	975	5
49	5107	985	5
49	5159	995	5
49	5211	1005	5
49	5263	1015	5
49	5315	1025	5
49	5367	1035	5
49	5419	1045	5
49	5471	1055	5
49	5523	1065	5
49	5575	1075	5
49	5627	1085	5
49	5679	1095	5
49	5731	1105	5
49	5783	1115	5
49	5835	1125	5
49	5887	1135	5
49	5939	1145	5
49	5991	1155	5
49	6043	1165	5
49	6095	1175	5
49	6147	1185	5
49	6199	1195	5
49	6251	1205	5
49	6303	1215	5
49	6355	1225	5
49	6407	1235	5
49	6459	1245	5
49	6511	1255	5
49	6563	1265	5
49	6615	1275	5
49	6667	1285	5
49	6719	1295	5
49	6771	1305	5
49	6823	1315	5
49	6875	1325	5
49	6927	1335	5
49	6979	1345	5
49	7031	1355	5
49	7083	1365	5
49	7135	1375	5
49	7187	1385	5
49	7239	1395	5
49	7291	1405	5
49	7343	1415	5
49	7395	1425	5
49	7447	1435	5
49	7499	1445	5
49	7551	1455	5
49	7603	1465	5
49	7655	1475	5
49	7707	1485	5
49	7759	1495	5
49	7811	1505	5
49	7863	1515	5
49	7915	1525	5
49	7967	1535	5
49	8019	1545	5
49	8071	1555	5
49	8123	1565	5
49	8175	1575	5
49	8227	1585	5
49	8279	1595	5
49	8331	1605	5
49	8383	1615	5
49	8435	1625	5
49	8487	1635	5
49	8539	1645	5
49	8591	1655	5
49	8643	1665	5
49	8695	1675	5
49	8747	1685	5
49	8799	1695	5
49	8851	1705	5
49	8903	1715	5
49	8955	1725	5
49	9007	1735	5
49	9059	1745	5
49	9111	1755	5
49	9163	1765	5
49	9215	1775	5
49	9267	1785	5
49	9319	1795	5
49	9371	1805	5
49	9423	1815	5
49	9475	1825	5
49	9527	1835	5
49	9579	1845	5
49	9631	1855	5
49	9683	1865	5
49	9735	1875	5
49	9787	1885	5
49	9839	1895	5
49	9891	1905	5
49	9943	1915	5
49	9995	1925	5
49	10047	1935	5
49	10099	1945	5
49	10151	1955	5
49	10203	1965	5
49	10255	1975	5
49	10307	1985	5
49	10359	1995	5
49	10411	2005	5
49	10463	2015	5
49	10515	2025	5
49	10567	2035	5
49	10619	2045	5
49	10671	2055	5
49	10723	2065	5
49	10775	2075	5
49	10827	2085	5
49	10879	2095	5
49	10931	2105	5
49	10983	2115	5
49	11035	2125	5
49	11087	2135	5
49	11139	2145	5
49	11191	2155	5
49	11243	2165	5
49	11295	2175	5
49	11347	2185	5
49	11399	2195	5
49	11451	2205	5
49	11503	2215	5
49	11555	2225	5
49	11607	2235	5
49	11659	2245	5
49	11711	2255	5
49	11763	2265	5
49	11815	2275	5
49	11867	2285	5
49	11919	2295	5
49	11971	2305	5
49	12023	2315	5
49	12075	2325	5
49	12127	2335	5
49	12179	2345	5
49	12231	2355	5
49	12283	2365	5
49	12335	2375	5
49	12387	2385	5
49	12439	2395	5
49	12491	2405	5
49	12543	2415	5
49	12595	2425	5
49	12647	2435	5
49	12699	2445	5
49	12751	2455	5
49	12803	2465	5
49	12855	2475	5
49	12907	2485	5
49	12959	2495	5
49	13011	2505	5
49	13063	2515	5
49	13115	2525	5
49	13167	2535	5
49	13219	2545	5
49	13271	2555	5
49	13323	2565	5
49	13375	2575	5
49	13427	2585	5
49	13479	2595	5
49	13531	2605	5
49	13583	2615	5
49	13635	2625	5
49	13687	2635	5
49	13739	2645	5
49	13791	2655	5
49	13843	2665	5
49	13895	2675	5
49	13947	2685	5
49	13999	2695	5
49	14051	2705	5
49	14103	2715	5
49	14155	2725	5
49	14207	2735	5
49	14259	2745	5
49	14311	2755	5
49	14363	2765	5
49	14415	2775	5
49	14467	2785	5
49	14519	2795	5
49	14571	2805	5
49	14623	2815	5
49	14675	2825	5
49	14727	2835	5
49	14779	2845	5
49	14831	2855	5
49	14883	2865	5
49	14935	2875	5
49	14987	2885	5
49	15039	2895	5
49	15091	2905	5
49	15143	2915	5
49	15195	2925	5
49	15247	2935	5
49	15299	2945	5
49	15351	2955	5
49	15403	2965	5
49	15455	2975	5
49	15507	2985	5
49	15559	2995	5
49	15611	3005	5
49	15663	3015	5
49	15715	3025	5
49	15767	3035	5
49	15819	3045	5
49	15871	3055	5
49	15923	3065	5
49	15975	3075	5
49	16027	3085	5
49	16079	3095	5
49	16131	3105	5
49	16183	3115	5
49	16235	3125	5
49	16287	3135	5
49	16339	3145	5
49	16391	3155	5
49	16443	3165	5
49	16495	3175	5
49	16547	3185	5
49	16599	3195	5
49	16651	3205	5
49	16703	3215	5
49	16755	3225	5
49	16807	3235	5
49	16859	3245	5
49	16911	3255	5
49	16963	3265	5
49	17015	3275	5
49	17067	3285	5
49	17119	3295	5
49	17171	3305	5
49	17223	3315	5
49	17275	3325	5
49	17327	3335	5
49	17379	3345	5
49	17431	3355	5
49	17483	3365	5
49	17535	3375	5
49	17587	3385	5
49	17639	3395	5
49	17691	3405	5
49	17743	3415	5
49	17795	3425	5
49	17847	3435	5
49	17899	3445	5
49	17951	3455	5
49	18003	3465	5
49	18055	3475	5
49	18107	3485	5
49	18159	3495	5
49	18211	3505	5
49	18263	3515	5
49	18315	3525	5
49	18367	3535	5
49	18419	3545	5
49	18471	3555	5
49	18523	3565	5
49	18575	3575	5
49	18627	3585	5
49	18679	3595	5
50	63	15	0
50	115	25	0
50	167	35	0
50	219	45	0
50	271	55	0
50	323	65	0
50	375	75	0
50	427	85	0
50	479	95	0
50	531	105	0
50	583	115	0
50	635	125	0
50	687	135	0
50	739	145	0
50	791	155	0
50	843	165	0
50	895	175	0
50	947	185	0
50	999	195	0
50	1051	205	0
50	1103	215	0
50	1155	225	0
50	1207	235	0
50	1259	245	0
50	1311	255	0
50	1363	265	0
50	1415	275	0
50	1467	285	0
50	1519	295	0
50	1571	305	0
50	1623	315	0
50	1675	325	0
50	1727	335	0
50	1779	345	0
50	1831	355	0
50	1883	365	0
50	1935	375	0
50	1987	385	0
50	2039	395	0
50	2091	405	0
50	2143	415	0
50	2195	425	0
50	2247	435	0
50	2299	445	0
50	2351	455	0
50	2403	465	0
50	2455	475	0
50	2507	485	0
50	2559	495	0
50	2611	505	0
50	2663	515	0
50	2715	525	0
50	2767	535	0
50	2819	545	0
50	2871	555	0
50	2923	565	0
50	2975	575	0
50	3027	585	0
50	3079	595	0
50	3131	605	0
50	3183	615	0
50	3235	625	0
50	3287	635	0
50	3339	645	0
50	3391	655	0
50	3443	665	0
50	3495	675	0
50	3547	685	0
50	3599	695	0
50	3651	705	0
50	3703	715	0
50	3755	725	0
50	3807	735	0
50	3859	745	0
50	3911	755	0
50	3963	765	0
50	4015	775	0
50	4067	785	0
50	4119	795	0
50	4171	805	0
50	4223	815	0
50	4275	825	0
50	4327	835	0
50	4379	845	0
50	4431	855	0
50	4483	865	0
50	4535	875	0
50	4587	885	0
50	4639	895	0
50	4691	905	0
50	4743	915	0
50	4795	925	0
50	4847	935	0
50	4899	945	0
50	4951	955	0
50	5003	965	0
50	5055	975	0
50	5107	985	0
50	5159	995	0
50	5211	1005	0
50	5263	1015	0
50	5315	1025	0
50	5367	1035	0
50	5419	1045	0
50	5471	1055	0
50	5523	1065	0
50	5575	1075	0
50	5627	1085	0
50	5679	1095	0
50	5731	1105	0
50	5783	1115	0
50	5835	1125	0
50	5887	1135	0
50	5939	1145	0
50	5991	1155	0
50	6043	1165	0
50	6095	1175	0
50	6147	1185	0
50	6199	1195	0
50	6251	1205	0
50	6303	1215	0
50	6355	1225	0
50	6407	1235	0
50	6459	1245	0
50	6511	1255	0
50	6563	1265	0
50	6615	1275	0
50	6667	1285	0
50	6719	1295	0
50	6771	1305	0
50	6823	1315	0
50	6875	1325	0
50	6927	1335	0
50	6979	1345	0
50	7031	1355	0
50	7083	1365	0
50	7135	1375	0
50	7187	1385	0
50	7239	1395	0
50	7291	1405	0
50	7343	1415	0
50	7395	1425	0
50	7447	1435	0
50	7499	1445	0
50	7551	1455	0
50	7603	1465	0
50	7655	1475	0
50	7707	1485	0
50	7759	1495	0
50	7811	1505	0
50	7863	1515	0
50	7915	1525	0
50	7967	1535	0
50	8019	1545	0
50	8071	1555	0
50	8123	1565	0
50	8175	1575	0
50	8227	1585	0
50	8279	1595	0
50	8331	1605	0
50	8383	1615	0
50	8435	1625	0
50	8487	1635	0
50	8539	1645	0
50	8591	1655	0
50	8643	1665	0
50	8695	1675	0
50	8747	1685	0
50	8799	1695	0
50	8851	1705	0
50	8903	1715	0
50	8955	1725	0
50	9007	1735	0
50	9059	1745	0
50	9111	1755	0
50	9163	1765	0
50	9215	1775	0
50	9267	1785	0
50	9319	1795	0
50	9371	1805	0
50	9423	1815	0
50	9475	1825	0
50	9527	1835	0
50	9579	1845	0
50	9631	1855	0
50	9683	1865	0
50	9735	1875	0
50	9787	1885	0
50	9839	1895	0
50	9891	1905	0
50	9943	1915	0
50	9995	1925	0
50	10047	1935	0
50	10099	1945	0
50	10151	1955	0
50	10203	1965	0
50	10255	1975	0
50	10307	1985	0
50	10359	1995	0
50	10411	2005	0
50	10463	2015	0
50	10515	2025	0
50	10567	2035	0
50	10619	2045	0
50	10671	2055	0
50	10723	2065	0
50	10775	2075	0
50	10827	2085	0
50	10879	2095	0
50	10931	2105	0
50	10983	2115	0
50	11035	2125	0
50	11087	2135	0
50	11139	2145	0
50	11191	2155	0
50	11243	2165	0
50	11295	2175	0
50	11347	2185	0
50	11399	2195	0
50	11451	2205	0
50	11503	2215	0
50	11555	2225	0
50	11607	2235	0
50	11659	2245	0
50	11711	2255	0
50	11763	2265	0
50	11815	2275	0
50	11867	2285	0
50	11919	2295	0
50	11971	2305	0
50	12023	2315	0
50	12075	2325	0
50	12127	2335	0
50	12179	2345	0
50	12231	2355	0
50	12283	2365	0
50	12335	2375	0
50	12387	2385	0
50	12439	2395	0
50	12491	2405	0
50	12543	2415	0
50	12595	2425	0
50	12647	2435	0
50	12699	2445	0
50	12751	2455	0
50	12803	2465	0
50	12855	2475	0
50	12907	2485	0
50	12959	2495	0
50	13011	2505	0
50	13063	2515	0
50	13115	2525	0
50	13167	2535	0
50	13219	2545	0
50	13271	2555	0
50	13323	2565	0
50	13375	2575	0
50	13427	2585	0
50	13479	2595	0
50	13531	2605	0
50	13583	2615	0
50	13635	2625	0
50	13687	2635	0
50	13739	2645	0
50	13791	2655	0
50	13843	2665	0
50	13895	2675	0
50	13947	2685	0
50	13999	2695	0
50	14051	2705	0
50	14103	2715	0
50	14155	2725	0
50	14207	2735	0
50	14259	2745	0
50	14311	2755	0
50	14363	2765	0
50	14415	2775	0
50	14467	2785	0
50	14519	2795	0
50	14571	2805	0
50	14623	2815	0
50	14675	2825	0
50	14727	2835	0
50	14779	2845	0
50	14831	2855	0
50	14883	2865	0
50	14935	2875	0
50	14987	2885	0
50	15039	2895	0
50	15091	2905	0
50	15143	2915	0
50	15195	2925	0
50	15247	2935	0
50	15299	2945	0
50	15351	2955	0
50	15403	2965	0
50	15455	2975	0
50	15507	2985	0
50	15559	2995	0
50	15611	3005	0
50	15663	3015	0
50	15715	3025	0
50	15767	3035	0
50	15819	3045	0
50	15871	3055	0
50	15923	3065	0
50	15975	3075	0
50	16027	3085	0
50	16079	3095	0
50	16131	3105	0
50	16183	3115	0
50	16235	3125	0
50	16287	3135	0
50	16339	3145	0
50	16391	3155	0
50	16443	3165	0
50	16495	3175	0
50	16547	3185	0
50	16599	3195	0
50	16651	3205	0
50	16703	3215	0
50	16755	3225	0
50	16807	3235	0
50	16859	3245	0
50	16911	3255	0
50	16963	3265	0
50	17015	3275	0
50	17067	3285	0
50	17119	3295	0
50	17171	3305	0
50	17223	3315	0
50	17275	3325	0
50	17327	3335	0
50	17379	3345	0
50	17431	3355	0
50	17483	3365	0
50	17535	3375	0
50	17587	3385	0
50	17639	3395	0
50	17691	3405	0
50	17743	3415	0
50	17795	3425	0
50	17847	3435	0
50	17899	3445	0
50	17951	3455	0
50	18003	3465	0
50	18055	3475	0
50	18107	3485	0
50	18159	3495	0
50	18211	3505	0
50	18263	3515	0
50	18315	3525	0
50	18367	3535	0
50	18419	3545	0
50	18471	3555	0
50	18523	3565	0
50	18575	3575	0
50	18627	3585	0
50	18679	3595	0

