version 2
run ContinuityTest1a-0-20210121-10:47:30-6881
attr configname ContinuityTest1a
attr datetime 20210121-10:47:30
attr experiment ContinuityTest1a
attr inifile omnetpp.ini
attr iterationvars ""
attr iterationvarsf ""
attr measurement ""
attr network slottedNetwork
attr processid 6881
attr repetition 0
attr replication #0
attr resultdir results
attr runnumber 0
attr seedset 0
param **.numTransmitters 8
param **.numChannels 20
param **.sendProbability 1
param **.expMean 10s
param **.timeSlotSize 5s
param **.thresh 20s
param **.deterministicInterarrivalTime true
param **.numTransmitters 1
param **.numChannels 1
param **.sendProbability 1
param **.expMean 5s
param **.timeSlotSize 5s
param **.thresh 20s
param **.deterministicInterarrivalTime false

vector 0 slottedNetwork.ch throughput:vector ETV
attr source throughputSignal
vector 1 slottedNetwork.transmitters[0] numPacketOnBuffer:vector ETV
attr source numPacketOnBufferSignal
vector 2 slottedNetwork.transmitters[1] numPacketOnBuffer:vector ETV
attr source numPacketOnBufferSignal
vector 3 slottedNetwork.transmitters[2] numPacketOnBuffer:vector ETV
attr source numPacketOnBufferSignal
vector 4 slottedNetwork.transmitters[3] numPacketOnBuffer:vector ETV
attr source numPacketOnBufferSignal
vector 5 slottedNetwork.transmitters[4] numPacketOnBuffer:vector ETV
attr source numPacketOnBufferSignal
vector 6 slottedNetwork.transmitters[5] numPacketOnBuffer:vector ETV
attr source numPacketOnBufferSignal
vector 7 slottedNetwork.transmitters[6] numPacketOnBuffer:vector ETV
attr source numPacketOnBufferSignal
vector 8 slottedNetwork.transmitters[7] numPacketOnBuffer:vector ETV
attr source numPacketOnBufferSignal
vector 9 slottedNetwork.transmitters[0] numPacketCreated:vector ETV
attr source numPacketCreatedSignal
vector 10 slottedNetwork.transmitters[1] numPacketCreated:vector ETV
attr source numPacketCreatedSignal
vector 11 slottedNetwork.transmitters[2] numPacketCreated:vector ETV
attr source numPacketCreatedSignal
vector 12 slottedNetwork.transmitters[3] numPacketCreated:vector ETV
attr source numPacketCreatedSignal
vector 13 slottedNetwork.transmitters[4] numPacketCreated:vector ETV
attr source numPacketCreatedSignal
vector 14 slottedNetwork.transmitters[5] numPacketCreated:vector ETV
attr source numPacketCreatedSignal
vector 15 slottedNetwork.transmitters[6] numPacketCreated:vector ETV
attr source numPacketCreatedSignal
vector 16 slottedNetwork.transmitters[7] numPacketCreated:vector ETV
attr source numPacketCreatedSignal
vector 17 slottedNetwork.ch collisions:vector ETV
attr source collisionSignal
vector 18 slottedNetwork.ch wholeResponseTime:vector ETV
attr source wholeResponseTimeSignal
vector 19 slottedNetwork.receivers[1] numPacketReceived:vector ETV
attr source numPacketReceivedSignal
vector 20 slottedNetwork.receivers[1] responseTime:vector ETV
attr source responseTimeSignal
vector 21 slottedNetwork.receivers[1] threshold:vector ETV
attr source thresholdSignal
vector 22 slottedNetwork.receivers[2] numPacketReceived:vector ETV
attr source numPacketReceivedSignal
vector 23 slottedNetwork.receivers[2] responseTime:vector ETV
attr source responseTimeSignal
vector 24 slottedNetwork.receivers[2] threshold:vector ETV
attr source thresholdSignal
vector 25 slottedNetwork.receivers[5] numPacketReceived:vector ETV
attr source numPacketReceivedSignal
vector 26 slottedNetwork.receivers[5] responseTime:vector ETV
attr source responseTimeSignal
vector 27 slottedNetwork.receivers[5] threshold:vector ETV
attr source thresholdSignal
vector 28 slottedNetwork.receivers[4] numPacketReceived:vector ETV
attr source numPacketReceivedSignal
vector 29 slottedNetwork.receivers[4] responseTime:vector ETV
attr source responseTimeSignal
vector 30 slottedNetwork.receivers[4] threshold:vector ETV
attr source thresholdSignal
vector 31 slottedNetwork.receivers[6] numPacketReceived:vector ETV
attr source numPacketReceivedSignal
vector 32 slottedNetwork.receivers[6] responseTime:vector ETV
attr source responseTimeSignal
vector 33 slottedNetwork.receivers[6] threshold:vector ETV
attr source thresholdSignal
vector 34 slottedNetwork.receivers[0] numPacketReceived:vector ETV
attr source numPacketReceivedSignal
vector 35 slottedNetwork.receivers[0] responseTime:vector ETV
attr source responseTimeSignal
vector 36 slottedNetwork.receivers[0] threshold:vector ETV
attr source thresholdSignal
vector 37 slottedNetwork.receivers[3] numPacketReceived:vector ETV
attr source numPacketReceivedSignal
vector 38 slottedNetwork.receivers[3] responseTime:vector ETV
attr source responseTimeSignal
vector 39 slottedNetwork.receivers[3] threshold:vector ETV
attr source thresholdSignal
vector 40 slottedNetwork.receivers[7] numPacketReceived:vector ETV
attr source numPacketReceivedSignal
vector 41 slottedNetwork.receivers[7] responseTime:vector ETV
attr source responseTimeSignal
vector 42 slottedNetwork.receivers[7] threshold:vector ETV
attr source thresholdSignal
0	1	5	0
0	18	10	0
0	35	15	3
0	55	20	0
0	67	25	3
0	89	30	2
0	106	35	6
0	132	40	3
0	152	45	6
0	177	50	2
0	194	55	6
0	218	60	1
0	235	65	7
0	261	70	2
0	280	75	4
0	301	80	0
0	314	85	4
0	337	90	2
0	355	95	5
0	380	100	3
0	398	105	4
0	422	110	3
0	440	115	4
0	463	120	2
0	479	125	5
0	503	130	2
0	521	135	5
0	545	140	2
0	561	145	5
0	584	150	1
0	600	155	6
0	627	160	2
0	644	165	6
0	669	170	0
0	682	175	4
0	703	180	0
0	716	185	2
0	736	190	1
0	751	195	5
0	777	200	2
0	793	205	5
0	818	210	3
0	837	215	3
0	859	220	2
0	874	225	4
0	899	230	4
0	918	235	3
0	941	240	3
0	957	245	4
0	982	250	4
0	1000	255	5
0	1027	260	5
0	1049	265	5
0	1074	270	3
0	1091	275	5
0	1116	280	3
0	1135	285	5
0	1160	290	3
0	1178	295	6
0	1206	300	5
0	1227	305	7
0	1256	310	5
0	1278	315	4
0	1302	320	3
0	1318	325	4
0	1342	330	3
0	1361	335	3
0	1384	340	3
0	1400	345	2
0	1420	350	1
0	1432	355	2
0	1452	360	1
0	1468	365	4
0	1493	370	2
0	1507	375	3
0	1533	380	6
0	1555	385	7
0	1587	390	6
0	1608	395	6
0	1636	400	3
0	1653	405	3
0	1676	410	1
0	1687	415	1
0	1706	420	1
0	1719	425	1
0	1742	430	3
0	1758	435	4
0	1783	440	4
0	1800	445	4
0	1824	450	3
0	1842	455	4
0	1866	460	3
0	1882	465	4
0	1907	470	4
0	1928	475	8
0	1960	480	7
0	1984	485	4
0	2008	490	3
0	2024	495	4
0	2049	500	4
0	2069	505	5
0	2095	510	2
0	2110	515	4
0	2135	520	2
0	2150	525	4
0	2173	530	2
0	2191	535	7
0	2220	540	2
0	2235	545	4
0	2258	550	2
0	2273	555	4
0	2298	560	4
0	2318	565	7
0	2348	570	6
0	2371	575	2
0	2392	580	2
0	2405	585	2
0	2428	590	4
0	2446	595	5
0	2473	600	5
0	2495	605	6
0	2523	610	1
0	2535	615	2
0	2555	620	1
0	2568	625	3
0	2591	630	3
0	2610	635	7
0	2639	640	3
0	2656	645	5
0	2681	650	3
0	2699	655	4
0	2723	660	3
0	2740	665	3
0	2763	670	3
0	2779	675	4
0	2804	680	2
0	2820	685	1
0	2839	690	1
0	2852	695	3
0	2875	700	3
0	2892	705	5
0	2921	710	7
0	2945	715	6
0	2974	720	4
0	2991	725	4
0	3018	730	4
0	3035	735	4
0	3060	740	4
0	3079	745	4
0	3104	750	4
0	3121	755	4
0	3148	760	4
0	3165	765	2
0	3186	770	2
0	3201	775	4
0	3228	780	6
0	3249	785	6
0	3277	790	5
0	3298	795	5
0	3324	800	4
0	3342	805	5
0	3369	810	3
0	3385	815	2
0	3407	820	3
0	3423	825	4
0	3448	830	4
0	3467	835	6
0	3496	840	6
0	3519	845	6
0	3547	850	5
0	3567	855	4
0	3592	860	4
0	3610	865	5
0	3636	870	2
0	3653	875	4
0	3678	880	4
0	3696	885	5
0	3724	890	4
0	3742	895	5
0	3769	900	5
0	3789	905	4
0	3814	910	4
0	3833	915	6
0	3861	920	5
0	3883	925	6
0	3911	930	5
0	3931	935	6
0	3959	940	5
0	3979	945	4
0	4004	950	4
0	4023	955	6
0	4051	960	5
0	4072	965	7
0	4101	970	5
0	4123	975	6
0	4149	980	1
0	4163	985	0
0	4180	990	0
0	4190	995	1
0	4212	1000	4
0	4230	1005	5
0	4258	1010	6
0	4281	1015	4
0	4306	1020	4
0	4323	1025	2
0	4346	1030	4
0	4363	1035	4
0	4389	1040	3
0	4405	1045	4
0	4429	1050	3
0	4447	1055	6
0	4476	1060	4
0	4495	1065	2
0	4515	1070	1
0	4528	1075	3
0	4551	1080	1
0	4564	1085	3
0	4587	1090	3
0	4604	1095	3
0	4626	1100	0
0	4636	1105	1
0	4655	1110	1
0	4670	1115	3
0	4693	1120	1
0	4706	1125	3
0	4729	1130	3
0	4747	1135	6
0	4776	1140	4
0	4794	1145	3
0	4816	1150	2
0	4831	1155	4
0	4857	1160	3
0	4873	1165	4
0	4898	1170	4
0	4917	1175	6
0	4946	1180	4
0	4964	1185	3
0	4986	1190	2
0	5001	1195	4
0	5024	1200	2
0	5041	1205	4
0	5066	1210	4
0	5085	1215	4
0	5109	1220	3
0	5126	1225	5
0	5151	1230	3
0	5168	1235	5
0	5195	1240	3
0	5213	1245	4
0	5237	1250	3
0	5253	1255	2
0	5274	1260	2
0	5290	1265	1
0	5309	1270	1
0	5320	1275	1
0	5341	1280	3
0	5357	1285	4
0	5384	1290	4
0	5401	1295	2
0	5422	1300	2
0	5436	1305	3
0	5459	1310	3
0	5478	1315	7
0	5509	1320	3
0	5525	1325	4
0	5550	1330	2
0	5564	1335	3
0	5588	1340	4
0	5608	1345	5
0	5635	1350	3
0	5651	1355	4
0	5676	1360	2
0	5691	1365	2
0	5713	1370	3
0	5729	1375	4
0	5757	1380	7
0	5780	1385	5
0	5808	1390	6
0	5829	1395	6
0	5859	1400	3
0	5874	1405	1
0	5893	1410	1
0	5906	1415	3
0	5933	1420	4
0	5950	1425	4
0	5975	1430	4
0	5993	1435	3
0	6018	1440	5
0	6037	1445	3
0	6061	1450	4
0	6079	1455	3
0	6104	1460	3
0	6120	1465	1
0	6140	1470	2
0	6153	1475	2
0	6175	1480	1
0	6188	1485	3
0	6211	1490	3
0	6228	1495	2
0	6250	1500	3
0	6265	1505	3
0	6289	1510	4
0	6308	1515	4
0	6334	1520	3
0	6349	1525	3
0	6372	1530	1
0	6385	1535	3
0	6408	1540	3
0	6425	1545	5
0	6453	1550	6
0	6475	1555	5
0	6503	1560	4
0	6520	1565	2
0	6542	1570	3
0	6558	1575	4
0	6584	1580	3
0	6600	1585	2
0	6622	1590	3
0	6639	1595	3
0	6663	1600	4
0	6680	1605	4
0	6707	1610	6
0	6728	1615	4
0	6752	1620	3
0	6770	1625	6
0	6799	1630	6
0	6821	1635	5
0	6848	1640	5
0	6868	1645	4
0	6892	1650	3
0	6909	1655	3
0	6932	1660	3
0	6949	1665	5
0	6976	1670	3
0	6992	1675	4
0	7018	1680	5
0	7039	1685	3
0	7062	1690	3
0	7078	1695	2
0	7099	1700	2
0	7113	1705	3
0	7136	1710	3
0	7156	1715	4
0	7181	1720	4
0	7198	1725	2
0	7221	1730	4
0	7238	1735	4
0	7264	1740	5
0	7285	1745	7
0	7316	1750	5
0	7336	1755	4
0	7360	1760	1
0	7373	1765	3
0	7396	1770	3
0	7413	1775	5
0	7440	1780	3
0	7457	1785	5
0	7484	1790	3
0	7500	1795	2
0	7521	1800	2
0	7537	1805	5
0	7566	1810	5
0	7585	1815	5
0	7612	1820	5
0	7633	1825	7
0	7663	1830	6
0	7685	1835	5
0	7711	1840	2
0	7726	1845	4
0	7750	1850	3
0	7767	1855	3
0	7791	1860	2
0	7805	1865	1
0	7825	1870	2
0	7840	1875	4
0	7864	1880	3
0	7881	1885	5
0	7910	1890	5
0	7930	1895	6
0	7958	1900	5
0	7979	1905	3
0	8002	1910	1
0	8013	1915	1
0	8032	1920	1
0	8044	1925	2
0	8066	1930	3
0	8083	1935	5
0	8112	1940	5
0	8131	1945	5
0	8159	1950	6
0	8180	1955	6
0	8209	1960	4
0	8227	1965	5
0	8254	1970	5
0	8274	1975	2
0	8294	1980	1
0	8307	1985	1
0	8327	1990	2
0	8341	1995	3
0	8364	2000	3
0	8382	2005	4
0	8408	2010	5
0	8427	2015	1
0	8447	2020	2
0	8460	2025	2
0	8485	2030	4
0	8503	2035	5
0	8529	2040	2
0	8544	2045	2
0	8564	2050	1
0	8576	2055	2
0	8598	2060	3
0	8614	2065	4
0	8641	2070	6
0	8663	2075	7
0	8693	2080	6
0	8716	2085	4
0	8740	2090	1
0	8752	2095	2
0	8772	2100	1
0	8785	2105	3
0	8808	2110	3
0	8826	2115	6
0	8855	2120	6
0	8877	2125	5
0	8903	2130	2
0	8917	2135	3
0	8940	2140	3
0	8956	2145	4
0	8980	2150	3
0	8999	2155	5
0	9025	2160	4
0	9043	2165	3
0	9066	2170	3
0	9083	2175	3
0	9107	2180	2
0	9120	2185	2
0	9144	2190	3
0	9162	2195	4
0	9187	2200	4
0	9205	2205	3
0	9227	2210	2
0	9242	2215	2
0	9262	2220	1
0	9275	2225	3
0	9298	2230	1
0	9312	2235	4
0	9336	2240	3
0	9353	2245	5
0	9380	2250	5
0	9401	2255	5
0	9428	2260	5
0	9448	2265	6
0	9476	2270	3
0	9493	2275	3
0	9516	2280	3
0	9532	2285	1
0	9553	2290	3
0	9569	2295	2
0	9592	2300	2
0	9605	2305	2
0	9629	2310	1
0	9642	2315	3
0	9665	2320	3
0	9682	2325	5
0	9709	2330	3
0	9725	2335	4
0	9751	2340	3
0	9767	2345	4
0	9793	2350	5
0	9813	2355	2
0	9835	2360	3
0	9850	2365	3
0	9874	2370	2
0	9887	2375	2
0	9909	2380	3
0	9926	2385	5
0	9954	2390	4
0	9971	2395	4
0	9997	2400	2
0	10010	2405	2
0	10031	2410	2
0	10046	2415	4
0	10072	2420	5
0	10092	2425	6
0	10123	2430	8
0	10148	2435	8
0	10181	2440	8
0	10206	2445	8
0	10239	2450	4
0	10256	2455	2
0	10277	2460	0
0	10289	2465	3
0	10312	2470	3
0	10329	2475	5
0	10357	2480	6
0	10379	2485	5
0	10407	2490	6
0	10428	2495	4
0	10453	2500	4
0	10471	2505	3
0	10495	2510	2
0	10509	2515	3
0	10532	2520	3
0	10549	2525	5
0	10577	2530	6
0	10599	2535	5
0	10627	2540	6
0	10648	2545	4
0	10673	2550	2
0	10687	2555	3
0	10711	2560	2
0	10726	2565	4
0	10753	2570	6
0	10774	2575	6
0	10803	2580	6
0	10825	2585	7
0	10856	2590	5
0	10875	2595	5
0	10902	2600	5
0	10922	2605	4
0	10946	2610	3
0	10963	2615	5
0	10991	2620	2
0	11005	2625	3
0	11027	2630	2
0	11042	2635	4
0	11066	2640	3
0	11083	2645	5
0	11110	2650	3
0	11126	2655	4
0	11150	2660	3
0	11166	2665	4
0	11191	2670	4
0	11209	2675	5
0	11236	2680	5
0	11256	2685	1
0	11275	2690	1
0	11286	2695	1
0	11307	2700	3
0	11323	2705	2
0	11347	2710	3
0	11363	2715	2
0	11385	2720	3
0	11400	2725	3
0	11423	2730	3
0	11440	2735	3
0	11464	2740	4
0	11481	2745	4
0	11508	2750	4
0	11525	2755	4
0	11551	2760	3
0	11568	2765	5
0	11595	2770	5
0	11614	2775	3
0	11638	2780	2
0	11651	2785	2
0	11672	2790	2
0	11687	2795	2
0	11709	2800	1
0	11721	2805	2
0	11743	2810	3
0	11759	2815	4
0	11785	2820	3
0	11801	2825	2
0	11822	2830	2
0	11836	2835	3
0	11859	2840	3
0	11875	2845	2
0	11897	2850	3
0	11913	2855	4
0	11939	2860	3
0	11954	2865	3
0	11977	2870	3
0	11992	2875	3
0	12015	2880	3
0	12032	2885	5
0	12060	2890	6
0	12082	2895	5
0	12109	2900	5
0	12128	2905	5
0	12155	2910	5
0	12174	2915	5
0	12201	2920	5
0	12221	2925	6
0	12250	2930	6
0	12271	2935	6
0	12301	2940	5
0	12320	2945	3
0	12343	2950	3
0	12359	2955	4
0	12384	2960	4
0	12401	2965	4
0	12428	2970	4
0	12446	2975	5
0	12473	2980	5
0	12493	2985	4
0	12518	2990	4
0	12535	2995	4
0	12561	3000	5
0	12581	3005	3
0	12605	3010	4
0	12622	3015	4
0	12648	3020	2
0	12662	3025	1
0	12681	3030	1
0	12692	3035	1
0	12712	3040	2
0	12729	3045	2
0	12750	3050	2
0	12764	3055	3
0	12787	3060	1
0	12798	3065	1
0	12818	3070	2
0	12831	3075	2
0	12854	3080	4
0	12872	3085	5
0	12899	3090	5
0	12919	3095	6
0	12948	3100	6
0	12970	3105	5
0	12998	3110	4
0	13015	3115	4
0	13041	3120	5
0	13060	3125	5
0	13087	3130	3
0	13103	3135	2
0	13124	3140	0
0	13135	3145	2
0	13156	3150	2
0	13169	3155	2
0	13193	3160	3
0	13208	3165	3
0	13232	3170	4
0	13251	3175	2
0	13272	3180	2
0	13286	3185	3
0	13310	3190	2
0	13323	3195	2
0	13346	3200	4
0	13365	3205	6
0	13395	3210	3
0	13410	3215	3
0	13433	3220	3
0	13448	3225	3
0	13473	3230	3
0	13489	3235	4
0	13515	3240	5
0	13534	3245	5
0	13562	3250	6
0	13583	3255	6
0	13612	3260	3
0	13627	3265	3
0	13651	3270	4
0	13669	3275	3
0	13693	3280	4
0	13711	3285	5
0	13739	3290	4
0	13756	3295	4
0	13781	3300	4
0	13801	3305	5
0	13828	3310	3
0	13843	3315	3
0	13866	3320	3
0	13881	3325	3
0	13907	3330	4
0	13925	3335	5
0	13952	3340	5
0	13971	3345	5
0	13999	3350	4
0	14016	3355	4
0	14041	3360	4
0	14061	3365	5
0	14088	3370	5
0	14107	3375	1
0	14126	3380	1
0	14138	3385	2
0	14160	3390	3
0	14175	3395	3
0	14200	3400	3
0	14217	3405	5
0	14244	3410	3
0	14260	3415	2
0	14282	3420	3
0	14298	3425	4
0	14323	3430	4
0	14341	3435	3
0	14365	3440	4
0	14383	3445	5
0	14410	3450	5
0	14429	3455	5
0	14458	3460	7
0	14481	3465	7
0	14512	3470	5
0	14531	3475	5
0	14558	3480	5
0	14578	3485	2
0	14599	3490	2
0	14613	3495	3
0	14636	3500	3
0	14651	3505	1
0	14673	3510	4
0	14691	3515	3
0	14715	3520	4
0	14733	3525	5
0	14760	3530	5
0	14779	3535	5
0	14807	3540	4
0	14825	3545	5
0	14852	3550	2
0	14867	3555	4
0	14892	3560	4
0	14909	3565	4
0	14937	3570	3
0	14952	3575	3
0	14975	3580	3
0	14991	3585	2
0	15012	3590	2
0	15027	3595	2
0	15050	3600	4
1	2	5	0
1	10	10	1
1	19	10	1
1	36	15	1
1	47	20	2
1	56	20	2
1	74	25	2
1	81	30	3
1	94	30	3
1	111	35	2
1	124	40	3
1	137	40	2
1	156	45	1
1	169	50	2
1	178	50	1
1	195	55	0
1	210	60	1
1	221	60	1
1	238	65	0
1	253	70	1
1	266	70	1
1	284	75	1
1	293	80	2
1	302	80	2
1	323	85	2
1	329	90	3
1	342	90	3
1	368	95	3
1	372	100	4
1	387	100	4
1	404	105	3
1	414	110	4
1	425	110	3
1	443	115	3
1	455	120	4
1	468	120	4
1	490	125	4
1	495	130	5
1	506	130	4
1	524	135	4
1	537	140	5
1	550	140	5
1	572	145	5
1	576	150	6
1	587	150	6
1	603	155	5
1	619	160	6
1	630	160	5
1	647	165	4
1	661	170	5
1	671	170	5
1	691	175	5
1	695	180	6
1	704	180	6
1	723	185	6
1	728	190	7
1	739	190	7
1	754	195	6
1	769	200	7
1	780	200	7
1	804	205	7
1	810	210	8
1	825	210	8
1	842	215	8
1	851	220	9
1	864	220	9
1	883	225	9
1	891	230	10
1	908	230	10
1	928	235	10
1	933	240	11
1	948	240	11
1	966	245	11
1	974	250	12
1	991	250	12
1	1011	255	12
1	1019	260	13
1	1036	260	12
1	1056	265	12
1	1066	270	13
1	1081	270	13
1	1102	275	13
1	1108	280	14
1	1123	280	14
1	1148	285	14
1	1152	290	15
1	1167	290	15
1	1185	295	14
1	1198	300	15
1	1213	300	14
1	1234	305	13
1	1248	310	14
1	1261	310	13
1	1283	315	13
1	1294	320	14
1	1309	320	14
1	1327	325	14
1	1334	330	15
1	1349	330	15
1	1372	335	15
1	1376	340	16
1	1389	340	15
1	1403	345	14
1	1412	350	15
1	1421	350	14
1	1433	355	13
1	1444	360	14
1	1453	360	13
1	1469	365	12
1	1485	370	13
1	1494	370	12
1	1508	375	11
1	1525	380	12
1	1534	380	11
1	1556	385	10
1	1579	390	11
1	1588	390	10
1	1609	395	9
1	1628	400	10
1	1637	400	9
1	1654	405	8
1	1668	410	9
1	1677	410	9
1	1690	415	9
1	1698	420	10
1	1709	420	10
1	1721	425	10
1	1734	430	11
1	1751	430	11
1	1767	435	11
1	1775	440	12
1	1792	440	12
1	1809	445	12
1	1816	450	13
1	1831	450	13
1	1848	455	12
1	1858	460	13
1	1871	460	12
1	1887	465	11
1	1899	470	12
1	1912	470	11
1	1933	475	10
1	1952	480	11
1	1965	480	10
1	1989	485	10
1	2000	490	11
1	2015	490	11
1	2033	495	11
1	2041	500	12
1	2058	500	12
1	2082	505	12
1	2087	510	13
1	2102	510	13
1	2115	515	12
1	2127	520	13
1	2140	520	13
1	2159	525	13
1	2165	530	14
1	2178	530	14
1	2196	535	13
1	2212	540	14
1	2223	540	13
1	2236	545	12
1	2250	550	13
1	2259	550	12
1	2274	555	11
1	2290	560	12
1	2299	560	11
1	2319	565	10
1	2340	570	11
1	2349	570	10
1	2372	575	10
1	2384	580	11
1	2397	580	11
1	2410	585	11
1	2420	590	12
1	2437	590	12
1	2457	595	12
1	2465	600	13
1	2484	600	13
1	2505	605	13
1	2515	610	14
1	2530	610	14
1	2540	615	14
1	2547	620	15
1	2558	620	15
1	2575	625	15
1	2583	630	16
1	2598	630	16
1	2625	635	16
1	2631	640	17
1	2648	640	17
1	2667	645	17
1	2673	650	18
1	2688	650	18
1	2704	655	17
1	2715	660	18
1	2726	660	17
1	2743	665	16
1	2755	670	17
1	2766	670	16
1	2782	675	15
1	2796	680	16
1	2806	680	16
1	2827	685	16
1	2831	690	17
1	2842	690	17
1	2859	695	17
1	2867	700	18
1	2882	700	18
1	2903	705	18
1	2913	710	19
1	2932	710	18
1	2955	715	17
1	2966	720	18
1	2981	720	17
1	2996	725	16
1	3010	730	17
1	3022	730	16
1	3038	735	15
1	3052	740	16
1	3063	740	15
1	3081	745	14
1	3096	750	15
1	3105	750	14
1	3122	755	13
1	3140	760	14
1	3149	760	13
1	3166	765	12
1	3178	770	13
1	3187	770	12
1	3202	775	11
1	3220	780	12
1	3229	780	11
1	3250	785	10
1	3269	790	11
1	3278	790	10
1	3299	795	9
1	3316	800	10
1	3325	800	9
1	3343	805	8
1	3361	810	9
1	3370	810	8
1	3386	815	7
1	3399	820	8
1	3408	820	7
1	3424	825	6
1	3440	830	7
1	3449	830	6
1	3468	835	5
1	3488	840	6
1	3497	840	5
1	3520	845	5
1	3539	850	6
1	3558	850	6
1	3578	855	6
1	3584	860	7
1	3601	860	7
1	3621	865	7
1	3628	870	8
1	3643	870	8
1	3658	875	8
1	3670	880	9
1	3687	880	9
1	3707	885	9
1	3716	890	10
1	3733	890	9
1	3749	895	8
1	3761	900	9
1	3774	900	8
1	3792	905	7
1	3806	910	8
1	3815	910	7
1	3834	915	6
1	3853	920	7
1	3862	920	6
1	3884	925	5
1	3903	930	6
1	3912	930	5
1	3932	935	4
1	3951	940	5
1	3960	940	4
1	3980	945	3
1	3996	950	4
1	4005	950	3
1	4024	955	2
1	4043	960	3
1	4052	960	2
1	4073	965	1
1	4093	970	2
1	4102	970	1
1	4124	975	0
1	4141	980	1
1	4154	980	1
1	4165	985	1
1	4172	990	2
1	4181	990	2
1	4193	995	2
1	4204	1000	3
1	4221	1000	3
1	4241	1005	3
1	4250	1010	4
1	4271	1010	4
1	4291	1015	3
1	4298	1020	4
1	4313	1020	3
1	4328	1025	2
1	4338	1030	3
1	4349	1030	2
1	4366	1035	1
1	4381	1040	2
1	4391	1040	1
1	4406	1045	0
1	4421	1050	1
1	4436	1050	1
1	4454	1055	0
1	4468	1060	1
1	4487	1060	1
1	4501	1065	0
1	4507	1070	1
1	4518	1070	1
1	4531	1075	0
1	4543	1080	1
1	4556	1080	1
1	4567	1085	0
1	4579	1090	1
1	4594	1090	1
1	4609	1095	0
1	4618	1100	1
1	4629	1100	1
1	4637	1105	0
1	4647	1110	1
1	4658	1110	1
1	4672	1115	0
1	4685	1120	1
1	4698	1120	1
1	4709	1125	0
1	4721	1130	1
1	4736	1130	1
1	4754	1135	0
1	4768	1140	1
1	4787	1140	1
1	4801	1145	0
1	4808	1150	1
1	4821	1150	1
1	4836	1155	0
1	4849	1160	1
1	4866	1160	1
1	4880	1165	0
1	4890	1170	1
1	4907	1170	1
1	4926	1175	0
1	4938	1180	1
1	4957	1180	1
1	4971	1185	0
1	4978	1190	1
1	4991	1190	1
1	5006	1195	0
1	5016	1200	1
1	5029	1200	1
1	5045	1205	0
1	5058	1210	1
1	5075	1210	1
1	5092	1215	0
1	5101	1220	1
1	5116	1220	1
1	5133	1225	0
1	5143	1230	1
1	5158	1230	1
1	5175	1235	0
1	5187	1240	1
1	5204	1240	1
1	5219	1245	0
1	5229	1250	1
1	5244	1250	1
1	5258	1255	0
1	5266	1260	1
1	5279	1260	1
1	5294	1265	1
1	5301	1270	2
1	5312	1270	2
1	5323	1275	2
1	5333	1280	3
1	5348	1280	3
1	5366	1285	3
1	5376	1290	4
1	5391	1290	3
1	5405	1295	3
1	5414	1300	4
1	5427	1300	4
1	5443	1305	4
1	5451	1310	5
1	5466	1310	5
1	5485	1315	4
1	5501	1320	5
1	5515	1320	4
1	5530	1325	3
1	5542	1330	4
1	5553	1330	3
1	5565	1335	2
1	5580	1340	3
1	5589	1340	2
1	5609	1345	2
1	5627	1350	3
1	5644	1350	3
1	5660	1355	3
1	5668	1360	4
1	5683	1360	4
1	5695	1365	3
1	5705	1370	4
1	5716	1370	3
1	5732	1375	2
1	5749	1380	3
1	5760	1380	2
1	5782	1385	2
1	5800	1390	3
1	5821	1390	3
1	5842	1395	3
1	5851	1400	4
1	5870	1400	4
1	5879	1405	4
1	5885	1410	5
1	5896	1410	5
1	5909	1415	4
1	5925	1420	5
1	5936	1420	5
1	5959	1425	5
1	5967	1430	6
1	5984	1430	6
1	6002	1435	6
1	6010	1440	7
1	6025	1440	6
1	6043	1445	5
1	6053	1450	6
1	6066	1450	5
1	6084	1455	5
1	6096	1460	6
1	6113	1460	6
1	6126	1465	6
1	6132	1470	7
1	6143	1470	6
1	6156	1475	5
1	6167	1480	6
1	6178	1480	6
1	6195	1485	6
1	6203	1490	7
1	6218	1490	7
1	6233	1495	6
1	6242	1500	7
1	6253	1500	6
1	6268	1505	5
1	6281	1510	6
1	6292	1510	5
1	6311	1515	4
1	6326	1520	5
1	6337	1520	5
1	6356	1525	5
1	6364	1530	6
1	6377	1530	6
1	6388	1535	5
1	6400	1540	6
1	6411	1540	5
1	6428	1545	4
1	6445	1550	5
1	6456	1550	4
1	6478	1555	4
1	6495	1560	5
1	6514	1560	5
1	6527	1565	5
1	6534	1570	6
1	6547	1570	5
1	6563	1575	4
1	6576	1580	5
1	6588	1580	4
1	6602	1585	3
1	6614	1590	4
1	6623	1590	3
1	6640	1595	2
1	6655	1600	3
1	6664	1600	2
1	6681	1605	1
1	6699	1610	2
1	6708	1610	1
1	6729	1615	0
1	6744	1620	1
1	6759	1620	1
1	6777	1625	0
1	6791	1630	1
1	6812	1630	1
1	6832	1635	0
1	6840	1640	1
1	6859	1640	1
1	6877	1645	0
1	6884	1650	1
1	6899	1650	1
1	6914	1655	0
1	6924	1660	1
1	6939	1660	1
1	6956	1665	0
1	6968	1670	1
1	6985	1670	1
1	6999	1675	0
1	7010	1680	1
1	7029	1680	1
1	7046	1685	0
1	7054	1690	1
1	7069	1690	1
1	7084	1695	1
1	7091	1700	2
1	7104	1700	2
1	7120	1705	2
1	7128	1710	3
1	7143	1710	3
1	7160	1715	2
1	7173	1720	3
1	7182	1720	2
1	7199	1725	1
1	7213	1730	2
1	7222	1730	1
1	7239	1735	0
1	7256	1740	1
1	7275	1740	1
1	7296	1745	0
1	7308	1750	1
1	7329	1750	1
1	7345	1755	0
1	7352	1760	1
1	7365	1760	1
1	7376	1765	0
1	7388	1770	1
1	7403	1770	1
1	7420	1775	0
1	7432	1780	1
1	7449	1780	1
1	7464	1785	0
1	7476	1790	1
1	7493	1790	1
1	7506	1795	1
1	7513	1800	2
1	7526	1800	2
1	7548	1805	2
1	7558	1810	3
1	7576	1810	2
1	7594	1815	1
1	7604	1820	2
1	7621	1820	1
1	7642	1825	0
1	7655	1830	1
1	7676	1830	1
1	7696	1835	0
1	7703	1840	1
1	7718	1840	1
1	7731	1845	0
1	7742	1850	1
1	7757	1850	1
1	7773	1855	0
1	7783	1860	1
1	7798	1860	1
1	7808	1865	0
1	7817	1870	1
1	7830	1870	1
1	7845	1875	0
1	7856	1880	1
1	7871	1880	1
1	7888	1885	0
1	7902	1890	1
1	7923	1890	1
1	7941	1895	0
1	7950	1900	1
1	7969	1900	1
1	7988	1905	1
1	7994	1910	2
1	8007	1910	2
1	8016	1915	2
1	8024	1920	3
1	8035	1920	3
1	8049	1925	3
1	8058	1930	4
1	8073	1930	4
1	8090	1935	3
1	8104	1940	4
1	8118	1940	3
1	8136	1945	2
1	8151	1950	3
1	8164	1950	2
1	8185	1955	1
1	8201	1960	2
1	8214	1960	1
1	8232	1965	0
1	8246	1970	1
1	8265	1970	1
1	8281	1975	0
1	8286	1980	1
1	8297	1980	1
1	8310	1985	1
1	8319	1990	2
1	8332	1990	2
1	8348	1995	2
1	8356	2000	3
1	8371	2000	3
1	8393	2005	3
1	8400	2010	4
1	8417	2010	3
1	8432	2015	2
1	8439	2020	3
1	8448	2020	2
1	8461	2025	1
1	8477	2030	2
1	8486	2030	1
1	8504	2035	0
1	8521	2040	1
1	8536	2040	1
1	8547	2045	0
1	8556	2050	1
1	8567	2050	1
1	8579	2055	0
1	8590	2060	1
1	8605	2060	1
1	8621	2065	0
1	8633	2070	1
1	8654	2070	1
1	8676	2075	0
1	8685	2080	1
1	8706	2080	1
1	8726	2085	0
1	8732	2090	1
1	8745	2090	1
1	8755	2095	0
1	8764	2100	1
1	8775	2100	1
1	8788	2105	0
1	8800	2110	1
1	8815	2110	1
1	8833	2115	0
1	8847	2120	1
1	8868	2120	1
1	8888	2125	0
1	8895	2130	1
1	8910	2130	1
1	8922	2135	0
1	8932	2140	1
1	8947	2140	1
1	8963	2145	0
1	8972	2150	1
1	8987	2150	1
1	9004	2155	0
1	9017	2160	1
1	9034	2160	1
1	9050	2165	0
1	9058	2170	1
1	9073	2170	1
1	9089	2175	1
1	9099	2180	2
1	9114	2180	2
1	9125	2185	2
1	9136	2190	3
1	9148	2190	2
1	9165	2195	1
1	9179	2200	2
1	9190	2200	1
1	9207	2205	0
1	9219	2210	1
1	9232	2210	1
1	9246	2215	0
1	9254	2220	1
1	9265	2220	1
1	9278	2225	0
1	9290	2230	1
1	9303	2230	1
1	9315	2235	0
1	9328	2240	1
1	9343	2240	1
1	9360	2245	0
1	9372	2250	1
1	9391	2250	1
1	9410	2255	0
1	9420	2260	1
1	9439	2260	1
1	9459	2265	0
1	9468	2270	1
1	9485	2270	1
1	9498	2275	0
1	9508	2280	1
1	9523	2280	1
1	9537	2285	1
1	9545	2290	2
1	9560	2290	2
1	9576	2295	2
1	9584	2300	3
1	9599	2300	3
1	9610	2305	3
1	9621	2310	4
1	9633	2310	4
1	9649	2315	4
1	9657	2320	5
1	9672	2320	5
1	9693	2325	5
1	9701	2330	6
1	9718	2330	6
1	9734	2335	6
1	9743	2340	7
1	9760	2340	7
1	9776	2345	7
1	9785	2350	8
1	9804	2350	8
1	9822	2355	8
1	9827	2360	9
1	9840	2360	8
1	9855	2365	7
1	9866	2370	8
1	9879	2370	8
1	9892	2375	8
1	9901	2380	9
1	9916	2380	9
1	9937	2385	9
1	9946	2390	10
1	9965	2390	10
1	9980	2395	10
1	9989	2400	11
1	10003	2400	10
1	10013	2405	9
1	10023	2410	10
1	10034	2410	9
1	10049	2415	8
1	10064	2420	9
1	10075	2420	8
1	10095	2425	7
1	10115	2430	8
1	10126	2430	7
1	10151	2435	6
1	10173	2440	7
1	10184	2440	6
1	10209	2445	5
1	10231	2450	6
1	10241	2450	6
1	10263	2455	6
1	10269	2460	7
1	10280	2460	7
1	10290	2465	6
1	10304	2470	7
1	10313	2470	6
1	10330	2475	5
1	10349	2480	6
1	10358	2480	5
1	10380	2485	4
1	10399	2490	5
1	10408	2490	4
1	10429	2495	3
1	10445	2500	4
1	10454	2500	3
1	10472	2505	2
1	10487	2510	3
1	10496	2510	3
1	10516	2515	3
1	10524	2520	4
1	10539	2520	4
1	10560	2525	4
1	10569	2530	5
1	10588	2530	4
1	10609	2535	3
1	10619	2540	4
1	10636	2540	3
1	10656	2545	3
1	10665	2550	4
1	10680	2550	4
1	10694	2555	4
1	10703	2560	5
1	10718	2560	5
1	10731	2565	4
1	10745	2570	5
1	10758	2570	4
1	10779	2575	3
1	10795	2580	4
1	10808	2580	3
1	10830	2585	2
1	10848	2590	3
1	10861	2590	2
1	10880	2595	1
1	10894	2600	2
1	10907	2600	1
1	10926	2605	0
1	10938	2610	1
1	10953	2610	1
1	10970	2615	0
1	10983	2620	1
1	11000	2620	1
1	11010	2625	0
1	11019	2630	1
1	11032	2630	1
1	11047	2635	0
1	11058	2640	1
1	11073	2640	1
1	11090	2645	0
1	11102	2650	1
1	11119	2650	1
1	11133	2655	0
1	11142	2660	1
1	11157	2660	1
1	11173	2665	0
1	11183	2670	1
1	11200	2670	1
1	11218	2675	0
1	11228	2680	1
1	11247	2680	1
1	11263	2685	1
1	11267	2690	2
1	11278	2690	2
1	11289	2695	2
1	11299	2700	3
1	11314	2700	3
1	11330	2705	3
1	11339	2710	4
1	11352	2710	4
1	11370	2715	4
1	11377	2720	5
1	11392	2720	5
1	11407	2725	5
1	11415	2730	6
1	11430	2730	6
1	11449	2735	6
1	11456	2740	7
1	11473	2740	7
1	11490	2745	7
1	11500	2750	8
1	11516	2750	7
1	11532	2755	6
1	11543	2760	7
1	11557	2760	6
1	11573	2765	5
1	11587	2770	6
1	11600	2770	5
1	11619	2775	5
1	11630	2780	6
1	11645	2780	6
1	11656	2785	6
1	11664	2790	7
1	11677	2790	7
1	11692	2795	7
1	11701	2800	8
1	11714	2800	8
1	11726	2805	8
1	11735	2810	9
1	11750	2810	9
1	11768	2815	9
1	11777	2820	10
1	11792	2820	9
1	11805	2825	9
1	11814	2830	10
1	11827	2830	10
1	11843	2835	10
1	11851	2840	11
1	11866	2840	11
1	11882	2845	11
1	11889	2850	12
1	11904	2850	12
1	11920	2855	11
1	11931	2860	12
1	11945	2860	11
1	11959	2865	10
1	11969	2870	11
1	11982	2870	10
1	11997	2875	9
1	12007	2880	10
1	12020	2880	9
1	12037	2885	8
1	12052	2890	9
1	12065	2890	8
1	12087	2895	8
1	12101	2900	9
1	12120	2900	9
1	12139	2905	9
1	12147	2910	10
1	12166	2910	10
1	12185	2915	10
1	12193	2920	11
1	12212	2920	11
1	12232	2925	10
1	12242	2930	11
1	12261	2930	10
1	12282	2935	9
1	12293	2940	10
1	12310	2940	9
1	12325	2945	8
1	12335	2950	9
1	12346	2950	8
1	12362	2955	7
1	12376	2960	8
1	12387	2960	7
1	12404	2965	6
1	12420	2970	7
1	12431	2970	6
1	12449	2975	5
1	12465	2980	6
1	12476	2980	5
1	12496	2985	5
1	12510	2990	6
1	12527	2990	6
1	12544	2995	6
1	12553	3000	7
1	12572	3000	7
1	12590	3005	7
1	12597	3010	8
1	12614	3010	8
1	12631	3015	8
1	12640	3020	9
1	12656	3020	9
1	12667	3025	9
1	12673	3030	10
1	12684	3030	10
1	12695	3035	10
1	12704	3040	11
1	12717	3040	11
1	12738	3045	11
1	12742	3050	12
1	12755	3050	12
1	12769	3055	11
1	12779	3060	12
1	12791	3060	12
1	12801	3065	12
1	12810	3070	13
1	12823	3070	13
1	12836	3075	13
1	12846	3080	14
1	12859	3080	13
1	12877	3085	12
1	12891	3090	13
1	12904	3090	12
1	12924	3095	11
1	12940	3100	12
1	12953	3100	11
1	12975	3105	10
1	12990	3110	11
1	13003	3110	10
1	13020	3115	9
1	13033	3120	10
1	13046	3120	9
1	13065	3125	8
1	13079	3130	9
1	13091	3130	8
1	13105	3135	7
1	13116	3140	8
1	13125	3140	8
1	13140	3145	8
1	13148	3150	9
1	13161	3150	9
1	13174	3155	9
1	13185	3160	10
1	13202	3160	10
1	13215	3165	10
1	13224	3170	11
1	13239	3170	10
1	13257	3175	10
1	13264	3180	11
1	13277	3180	11
1	13293	3185	11
1	13302	3190	12
1	13317	3190	12
1	13328	3195	12
1	13338	3200	13
1	13351	3200	12
1	13370	3205	11
1	13387	3210	12
1	13399	3210	11
1	13413	3215	10
1	13425	3220	11
1	13436	3220	10
1	13451	3225	9
1	13465	3230	10
1	13476	3230	9
1	13492	3235	8
1	13507	3240	9
1	13518	3240	8
1	13537	3245	7
1	13554	3250	8
1	13565	3250	7
1	13586	3255	6
1	13604	3260	7
1	13614	3260	7
1	13634	3265	7
1	13643	3270	8
1	13660	3270	8
1	13678	3275	8
1	13685	3280	9
1	13700	3280	8
1	13718	3285	7
1	13731	3290	8
1	13745	3290	7
1	13761	3295	6
1	13773	3300	7
1	13786	3300	6
1	13806	3305	6
1	13820	3310	7
1	13837	3310	7
1	13850	3315	7
1	13858	3320	8
1	13873	3320	8
1	13888	3325	8
1	13899	3330	9
1	13914	3330	9
1	13936	3335	9
1	13944	3340	10
1	13963	3340	10
1	13982	3345	10
1	13991	3350	11
1	14008	3350	10
1	14023	3355	9
1	14033	3360	10
1	14048	3360	9
1	14067	3365	8
1	14080	3370	9
1	14093	3370	8
1	14110	3375	7
1	14118	3380	8
1	14127	3380	7
1	14139	3385	6
1	14152	3390	7
1	14161	3390	6
1	14176	3395	5
1	14192	3400	6
1	14201	3400	6
1	14228	3405	6
1	14236	3410	7
1	14253	3410	7
1	14265	3415	6
1	14274	3420	7
1	14285	3420	6
1	14301	3425	5
1	14315	3430	6
1	14326	3430	5
1	14344	3435	5
1	14357	3440	6
1	14374	3440	6
1	14394	3445	6
1	14402	3450	7
1	14421	3450	7
1	14440	3455	7
1	14450	3460	8
1	14469	3460	7
1	14492	3465	6
1	14504	3470	7
1	14522	3470	6
1	14540	3475	5
1	14550	3480	6
1	14567	3480	5
1	14585	3485	5
1	14591	3490	6
1	14604	3490	6
1	14620	3495	6
1	14628	3500	7
1	14643	3500	7
1	14656	3505	7
1	14665	3510	8
1	14676	3510	7
1	14693	3515	6
1	14707	3520	7
1	14716	3520	6
1	14734	3525	5
1	14752	3530	6
1	14761	3530	5
1	14780	3535	4
1	14799	3540	5
1	14808	3540	4
1	14826	3545	3
1	14844	3550	4
1	14853	3550	3
1	14868	3555	2
1	14884	3560	3
1	14893	3560	2
1	14910	3565	1
1	14929	3570	2
1	14938	3570	2
1	14959	3575	2
1	14967	3580	3
1	14982	3580	3
1	14997	3585	3
1	15004	3590	4
1	15017	3590	4
1	15034	3595	4
1	15042	3600	5
1	15055	3600	4
2	3	5	0
2	11	10	1
2	20	10	1
2	37	15	0
2	48	20	1
2	57	20	1
2	68	25	0
2	82	30	1
2	95	30	1
2	113	35	0
2	125	40	1
2	139	40	1
2	158	45	0
2	170	50	1
2	182	50	1
2	199	55	0
2	211	60	1
2	222	60	1
2	240	65	0
2	254	70	1
2	267	70	1
2	285	75	0
2	294	80	1
2	303	80	1
2	315	85	0
2	330	90	1
2	343	90	1
2	360	95	1
2	373	100	2
2	388	100	2
2	409	105	2
2	415	110	3
2	429	110	3
2	446	115	3
2	456	120	4
2	469	120	4
2	491	125	4
2	496	130	5
2	508	130	5
2	534	135	5
2	538	140	6
2	551	140	6
2	573	145	6
2	577	150	7
2	588	150	7
2	613	155	7
2	620	160	8
2	632	160	8
2	657	165	8
2	662	170	9
2	672	170	9
2	692	175	9
2	696	180	10
2	705	180	10
2	724	185	10
2	729	190	11
2	740	190	11
2	756	195	10
2	770	200	11
2	781	200	10
2	796	205	9
2	811	210	10
2	821	210	9
2	840	215	9
2	852	220	10
2	865	220	10
2	884	225	10
2	892	230	11
2	906	230	10
2	923	235	10
2	934	240	11
2	949	240	11
2	967	245	11
2	975	250	12
2	992	250	12
2	1012	255	12
2	1020	260	13
2	1038	260	13
2	1057	265	12
2	1067	270	13
2	1077	270	12
2	1094	275	11
2	1109	280	12
2	1119	280	11
2	1137	285	10
2	1153	290	11
2	1161	290	10
2	1179	295	9
2	1199	300	10
2	1207	300	9
2	1228	305	8
2	1249	310	9
2	1257	310	8
2	1279	315	7
2	1295	320	8
2	1303	320	7
2	1319	325	6
2	1335	330	7
2	1343	330	6
2	1362	335	5
2	1377	340	6
2	1385	340	5
2	1401	345	5
2	1413	350	6
2	1423	350	6
2	1437	355	6
2	1445	360	7
2	1455	360	7
2	1471	365	7
2	1486	370	8
2	1500	370	8
2	1514	375	8
2	1526	380	9
2	1540	380	8
2	1562	385	7
2	1580	390	8
2	1594	390	7
2	1615	395	6
2	1629	400	7
2	1640	400	7
2	1662	405	7
2	1669	410	8
2	1681	410	8
2	1691	415	8
2	1699	420	9
2	1710	420	9
2	1724	425	9
2	1735	430	10
2	1745	430	10
2	1768	435	10
2	1776	440	11
2	1793	440	11
2	1810	445	11
2	1817	450	12
2	1832	450	12
2	1853	455	12
2	1859	460	13
2	1873	460	13
2	1891	465	13
2	1900	470	14
2	1916	470	14
2	1937	475	13
2	1953	480	14
2	1969	480	13
2	1991	485	13
2	2001	490	14
2	2016	490	14
2	2034	495	14
2	2042	500	15
2	2054	500	14
2	2074	505	13
2	2088	510	14
2	2099	510	14
2	2119	515	14
2	2128	520	15
2	2142	520	15
2	2155	525	14
2	2166	530	15
2	2176	530	14
2	2194	535	13
2	2213	540	14
2	2222	540	14
2	2244	545	14
2	2251	550	15
2	2263	550	15
2	2282	555	15
2	2291	560	16
2	2303	560	15
2	2323	565	14
2	2341	570	15
2	2353	570	14
2	2375	575	13
2	2385	580	14
2	2395	580	13
2	2408	585	12
2	2421	590	13
2	2431	590	12
2	2449	595	11
2	2466	600	12
2	2474	600	11
2	2496	605	10
2	2516	610	11
2	2524	610	11
2	2541	615	11
2	2548	620	12
2	2559	620	12
2	2576	625	12
2	2584	630	13
2	2599	630	13
2	2617	635	12
2	2632	640	13
2	2644	640	12
2	2661	645	11
2	2674	650	12
2	2686	650	11
2	2702	655	10
2	2716	660	11
2	2724	660	10
2	2741	665	9
2	2756	670	10
2	2764	670	9
2	2780	675	8
2	2797	680	9
2	2805	680	9
2	2828	685	9
2	2832	690	10
2	2843	690	10
2	2855	695	9
2	2868	700	10
2	2878	700	9
2	2895	705	8
2	2914	710	9
2	2924	710	8
2	2948	715	7
2	2967	720	8
2	2976	720	7
2	2992	725	6
2	3011	730	7
2	3019	730	7
2	3044	735	7
2	3053	740	8
2	3069	740	8
2	3090	745	8
2	3097	750	9
2	3113	750	9
2	3130	755	9
2	3141	760	10
2	3156	760	10
2	3172	765	10
2	3179	770	11
2	3191	770	11
2	3210	775	11
2	3221	780	12
2	3241	780	12
2	3262	785	12
2	3270	790	13
2	3288	790	13
2	3311	795	13
2	3317	800	14
2	3333	800	14
2	3353	805	14
2	3362	810	15
2	3377	810	15
2	3392	815	15
2	3400	820	16
2	3414	820	16
2	3430	825	15
2	3441	830	16
2	3453	830	15
2	3472	835	14
2	3489	840	15
2	3501	840	14
2	3523	845	13
2	3540	850	14
2	3550	850	13
2	3570	855	12
2	3585	860	13
2	3595	860	12
2	3613	865	11
2	3629	870	12
2	3638	870	11
2	3654	875	10
2	3671	880	11
2	3679	880	10
2	3697	885	9
2	3717	890	10
2	3725	890	10
2	3753	895	10
2	3762	900	11
2	3780	900	11
2	3800	905	11
2	3807	910	12
2	3821	910	11
2	3840	915	10
2	3854	920	11
2	3866	920	10
2	3887	925	9
2	3904	930	10
2	3914	930	9
2	3934	935	8
2	3952	940	9
2	3962	940	8
2	3982	945	7
2	3997	950	8
2	4007	950	7
2	4026	955	6
2	4044	960	7
2	4054	960	6
2	4075	965	5
2	4094	970	6
2	4104	970	5
2	4126	975	4
2	4142	980	5
2	4150	980	5
2	4168	985	5
2	4173	990	6
2	4182	990	6
2	4194	995	6
2	4205	1000	7
2	4222	1000	7
2	4242	1005	7
2	4251	1010	8
2	4269	1010	7
2	4289	1015	6
2	4299	1020	7
2	4311	1020	6
2	4327	1025	6
2	4339	1030	7
2	4355	1030	7
2	4372	1035	7
2	4382	1040	8
2	4398	1040	8
2	4412	1045	7
2	4422	1050	8
2	4434	1050	7
2	4452	1055	6
2	4469	1060	7
2	4481	1060	7
2	4504	1065	7
2	4508	1070	8
2	4519	1070	8
2	4533	1075	7
2	4544	1080	8
2	4554	1080	8
2	4571	1085	8
2	4580	1090	9
2	4595	1090	9
2	4613	1095	9
2	4619	1100	10
2	4630	1100	10
2	4639	1105	10
2	4648	1110	11
2	4656	1110	10
2	4671	1115	10
2	4686	1120	11
2	4699	1120	11
2	4713	1125	11
2	4722	1130	12
2	4737	1130	12
2	4760	1135	12
2	4769	1140	13
2	4785	1140	12
2	4800	1145	12
2	4809	1150	13
2	4822	1150	13
2	4840	1155	13
2	4850	1160	14
2	4863	1160	13
2	4878	1165	12
2	4891	1170	13
2	4903	1170	12
2	4922	1175	11
2	4939	1180	12
2	4951	1180	11
2	4968	1185	11
2	4979	1190	12
2	4992	1190	12
2	5010	1195	12
2	5017	1200	13
2	5030	1200	13
2	5052	1205	13
2	5059	1210	14
2	5071	1210	13
2	5090	1215	13
2	5102	1220	14
2	5117	1220	14
2	5137	1225	14
2	5144	1230	15
2	5159	1230	15
2	5179	1235	15
2	5188	1240	16
2	5205	1240	16
2	5221	1245	15
2	5230	1250	16
2	5242	1250	15
2	5257	1255	15
2	5267	1260	16
2	5280	1260	16
2	5297	1265	16
2	5302	1270	17
2	5313	1270	17
2	5324	1275	17
2	5334	1280	18
2	5344	1280	17
2	5360	1285	16
2	5377	1290	17
2	5387	1290	17
2	5408	1295	17
2	5415	1300	18
2	5428	1300	18
2	5441	1305	17
2	5452	1310	18
2	5464	1310	17
2	5483	1315	16
2	5502	1320	17
2	5514	1320	17
2	5534	1325	17
2	5543	1330	18
2	5557	1330	18
2	5571	1335	18
2	5581	1340	19
2	5595	1340	18
2	5614	1345	18
2	5628	1350	19
2	5645	1350	19
2	5661	1355	19
2	5669	1360	20
2	5684	1360	20
2	5697	1365	20
2	5706	1370	21
2	5720	1370	21
2	5738	1375	21
2	5750	1380	22
2	5772	1380	22
2	5793	1385	22
2	5801	1390	23
2	5819	1390	22
2	5840	1395	21
2	5852	1400	22
2	5867	1400	22
2	5880	1405	22
2	5886	1410	23
2	5897	1410	23
2	5913	1415	23
2	5926	1420	24
2	5938	1420	23
2	5953	1425	22
2	5968	1430	23
2	5978	1430	22
2	5995	1435	22
2	6011	1440	23
2	6029	1440	23
2	6046	1445	23
2	6054	1450	24
2	6070	1450	24
2	6088	1455	24
2	6097	1460	25
2	6110	1460	24
2	6124	1465	24
2	6133	1470	25
2	6145	1470	25
2	6158	1475	25
2	6168	1480	26
2	6180	1480	26
2	6196	1485	26
2	6204	1490	27
2	6219	1490	27
2	6235	1495	27
2	6243	1500	28
2	6257	1500	28
2	6272	1505	28
2	6282	1510	29
2	6298	1510	29
2	6319	1515	29
2	6327	1520	30
2	6343	1520	30
2	6357	1525	30
2	6365	1530	31
2	6378	1530	31
2	6392	1535	31
2	6401	1540	32
2	6415	1540	32
2	6432	1545	31
2	6446	1550	32
2	6460	1550	31
2	6481	1555	30
2	6496	1560	31
2	6507	1560	31
2	6528	1565	31
2	6535	1570	32
2	6549	1570	32
2	6567	1575	32
2	6577	1580	33
2	6592	1580	33
2	6607	1585	33
2	6615	1590	34
2	6629	1590	34
2	6645	1595	34
2	6656	1600	35
2	6672	1600	35
2	6689	1605	35
2	6700	1610	36
2	6716	1610	35
2	6735	1615	34
2	6745	1620	35
2	6755	1620	34
2	6773	1625	33
2	6792	1630	34
2	6802	1630	33
2	6824	1635	32
2	6841	1640	33
2	6851	1640	32
2	6870	1645	31
2	6885	1650	32
2	6893	1650	31
2	6910	1655	31
2	6925	1660	32
2	6940	1660	32
2	6960	1665	32
2	6969	1670	33
2	6986	1670	33
2	7001	1675	33
2	7011	1680	34
2	7025	1680	33
2	7043	1685	32
2	7055	1690	33
2	7063	1690	32
2	7079	1695	31
2	7092	1700	32
2	7100	1700	31
2	7114	1705	30
2	7129	1710	31
2	7137	1710	30
2	7157	1715	30
2	7174	1720	31
2	7190	1720	31
2	7205	1725	31
2	7214	1730	32
2	7230	1730	32
2	7247	1735	32
2	7257	1740	33
2	7271	1740	32
2	7292	1745	31
2	7309	1750	32
2	7321	1750	31
2	7338	1755	30
2	7353	1760	31
2	7361	1760	31
2	7380	1765	31
2	7389	1770	32
2	7404	1770	32
2	7424	1775	32
2	7433	1780	33
2	7450	1780	33
2	7468	1785	33
2	7477	1790	34
2	7491	1790	33
2	7504	1795	32
2	7514	1800	33
2	7524	1800	32
2	7540	1805	31
2	7559	1810	32
2	7569	1810	31
2	7588	1815	30
2	7605	1820	31
2	7615	1820	30
2	7636	1825	29
2	7656	1830	30
2	7666	1830	29
2	7687	1835	28
2	7704	1840	29
2	7712	1840	29
2	7735	1845	29
2	7743	1850	30
2	7758	1850	30
2	7776	1855	30
2	7784	1860	31
2	7799	1860	31
2	7810	1865	31
2	7818	1870	32
2	7826	1870	31
2	7841	1875	30
2	7857	1880	31
2	7865	1880	30
2	7882	1885	29
2	7903	1890	30
2	7911	1890	29
2	7931	1895	28
2	7951	1900	29
2	7959	1900	28
2	7980	1905	28
2	7995	1910	29
2	8008	1910	29
2	8017	1915	29
2	8025	1920	30
2	8036	1920	30
2	8050	1925	30
2	8059	1930	31
2	8074	1930	31
2	8092	1935	30
2	8105	1940	31
2	8120	1940	31
2	8142	1945	31
2	8152	1950	32
2	8172	1950	32
2	8193	1955	32
2	8202	1960	33
2	8220	1960	33
2	8236	1965	32
2	8247	1970	33
2	8261	1970	32
2	8279	1975	32
2	8287	1980	33
2	8298	1980	33
2	8312	1985	33
2	8320	1990	34
2	8333	1990	34
2	8346	1995	33
2	8357	2000	34
2	8369	2000	33
2	8387	2005	33
2	8401	2010	34
2	8419	2010	34
2	8434	2015	34
2	8440	2020	35
2	8452	2020	35
2	8465	2025	35
2	8478	2030	36
2	8496	2030	36
2	8512	2035	35
2	8522	2040	36
2	8534	2040	35
2	8546	2045	35
2	8557	2050	36
2	8568	2050	36
2	8581	2055	36
2	8591	2060	37
2	8606	2060	37
2	8623	2065	37
2	8634	2070	38
2	8648	2070	37
2	8670	2075	36
2	8686	2080	37
2	8700	2080	36
2	8721	2085	35
2	8733	2090	36
2	8743	2090	36
2	8757	2095	36
2	8765	2100	37
2	8776	2100	37
2	8792	2105	37
2	8801	2110	38
2	8816	2110	38
2	8839	2115	38
2	8848	2120	39
2	8866	2120	38
2	8887	2125	38
2	8896	2130	39
2	8911	2130	39
2	8924	2135	39
2	8933	2140	40
2	8945	2140	39
2	8961	2145	38
2	8973	2150	39
2	8985	2150	38
2	9003	2155	38
2	9018	2160	39
2	9035	2160	39
2	9052	2165	39
2	9059	2170	40
2	9071	2170	39
2	9087	2175	38
2	9100	2180	39
2	9109	2180	39
2	9126	2185	39
2	9137	2190	40
2	9153	2190	40
2	9169	2195	40
2	9180	2200	41
2	9196	2200	41
2	9214	2205	41
2	9220	2210	42
2	9233	2210	42
2	9248	2215	42
2	9255	2220	43
2	9266	2220	43
2	9282	2225	43
2	9291	2230	44
2	9304	2230	44
2	9321	2235	44
2	9329	2240	45
2	9344	2240	45
2	9364	2245	45
2	9373	2250	46
2	9392	2250	46
2	9414	2255	46
2	9421	2260	47
2	9437	2260	46
2	9457	2265	45
2	9469	2270	46
2	9483	2270	45
2	9497	2275	45
2	9509	2280	46
2	9524	2280	46
2	9538	2285	46
2	9546	2290	47
2	9556	2290	46
2	9572	2295	45
2	9585	2300	46
2	9595	2300	46
2	9611	2305	46
2	9622	2310	47
2	9636	2310	47
2	9650	2315	47
2	9658	2320	48
2	9673	2320	48
2	9689	2325	47
2	9702	2330	48
2	9716	2330	48
2	9735	2335	48
2	9744	2340	49
2	9761	2340	49
2	9777	2345	49
2	9786	2350	50
2	9802	2350	49
2	9820	2355	49
2	9828	2360	50
2	9842	2360	50
2	9857	2365	50
2	9867	2370	51
2	9881	2370	51
2	9893	2375	51
2	9902	2380	52
2	9917	2380	52
2	9933	2385	51
2	9947	2390	52
2	9961	2390	51
2	9978	2395	50
2	9990	2400	51
2	10001	2400	50
2	10011	2405	49
2	10024	2410	50
2	10032	2410	49
2	10047	2415	48
2	10065	2420	49
2	10073	2420	48
2	10093	2425	47
2	10116	2430	48
2	10124	2430	47
2	10149	2435	46
2	10174	2440	47
2	10182	2440	46
2	10207	2445	45
2	10232	2450	46
2	10240	2450	46
2	10264	2455	46
2	10270	2460	47
2	10281	2460	47
2	10292	2465	46
2	10305	2470	47
2	10315	2470	46
2	10332	2475	45
2	10350	2480	46
2	10360	2480	45
2	10382	2485	45
2	10400	2490	46
2	10420	2490	46
2	10439	2495	46
2	10446	2500	47
2	10462	2500	47
2	10480	2505	47
2	10488	2510	48
2	10501	2510	48
2	10517	2515	48
2	10525	2520	49
2	10540	2520	49
2	10561	2525	49
2	10570	2530	50
2	10590	2530	50
2	10611	2535	50
2	10620	2540	51
2	10640	2540	51
2	10659	2545	51
2	10666	2550	52
2	10681	2550	52
2	10695	2555	52
2	10704	2560	53
2	10717	2560	53
2	10735	2565	53
2	10746	2570	54
2	10766	2570	54
2	10787	2575	54
2	10796	2580	55
2	10816	2580	55
2	10840	2585	55
2	10849	2590	56
2	10869	2590	56
2	10886	2595	56
2	10895	2600	57
2	10913	2600	57
2	10933	2605	57
2	10939	2610	58
2	10954	2610	58
2	10974	2615	58
2	10984	2620	59
2	11001	2620	59
2	11012	2625	59
2	11020	2630	60
2	11033	2630	60
2	11051	2635	60
2	11059	2640	61
2	11074	2640	61
2	11094	2645	61
2	11103	2650	62
2	11120	2650	62
2	11135	2655	62
2	11143	2660	63
2	11158	2660	63
2	11175	2665	63
2	11184	2670	64
2	11201	2670	64
2	11220	2675	64
2	11229	2680	65
2	11248	2680	65
2	11264	2685	65
2	11268	2690	66
2	11279	2690	66
2	11290	2695	66
2	11300	2700	67
2	11315	2700	67
2	11331	2705	67
2	11340	2710	68
2	11353	2710	68
2	11371	2715	68
2	11378	2720	69
2	11393	2720	69
2	11408	2725	69
2	11416	2730	70
2	11431	2730	70
2	11450	2735	70
2	11457	2740	71
2	11474	2740	71
2	11491	2745	71
2	11501	2750	72
2	11518	2750	72
2	11534	2755	72
2	11544	2760	73
2	11560	2760	73
2	11579	2765	73
2	11588	2770	74
2	11606	2770	74
2	11623	2775	74
2	11631	2780	75
2	11646	2780	75
2	11657	2785	75
2	11665	2790	76
2	11678	2790	76
2	11694	2795	76
2	11702	2800	77
2	11715	2800	77
2	11727	2805	77
2	11736	2810	78
2	11751	2810	78
2	11769	2815	78
2	11778	2820	79
2	11794	2820	79
2	11808	2825	79
2	11815	2830	80
2	11828	2830	80
2	11844	2835	80
2	11852	2840	81
2	11867	2840	81
2	11883	2845	81
2	11890	2850	82
2	11905	2850	82
2	11922	2855	82
2	11932	2860	83
2	11948	2860	83
2	11961	2865	83
2	11970	2870	84
2	11984	2870	84
2	11999	2875	84
2	12008	2880	85
2	12022	2880	85
2	12043	2885	85
2	12053	2890	86
2	12073	2890	86
2	12095	2895	86
2	12102	2900	87
2	12121	2900	87
2	12140	2905	87
2	12148	2910	88
2	12167	2910	88
2	12186	2915	88
2	12194	2920	89
2	12213	2920	89
2	12234	2925	89
2	12243	2930	90
2	12263	2930	90
2	12284	2935	90
2	12294	2940	91
2	12314	2940	91
2	12329	2945	91
2	12336	2950	92
2	12350	2950	92
2	12368	2955	92
2	12377	2960	93
2	12393	2960	93
2	12410	2965	93
2	12421	2970	94
2	12439	2970	94
2	12457	2975	94
2	12466	2980	95
2	12484	2980	95
2	12504	2985	95
2	12511	2990	96
2	12528	2990	96
2	12545	2995	96
2	12554	3000	97
2	12573	3000	97
2	12591	3005	97
2	12598	3010	98
2	12615	3010	98
2	12632	3015	98
2	12641	3020	99
2	12657	3020	99
2	12668	3025	99
2	12674	3030	100
2	12685	3030	100
2	12696	3035	100
2	12705	3040	101
2	12718	3040	101
2	12739	3045	101
2	12743	3050	102
2	12756	3050	102
2	12771	3055	102
2	12780	3060	103
2	12792	3060	103
2	12802	3065	103
2	12811	3070	104
2	12824	3070	104
2	12837	3075	104
2	12847	3080	105
2	12863	3080	105
2	12883	3085	105
2	12892	3090	106
2	12910	3090	106
2	12932	3095	106
2	12941	3100	107
2	12961	3100	107
2	12983	3105	107
2	12991	3110	108
2	13008	3110	108
2	13024	3115	108
2	13034	3120	109
2	13052	3120	109
2	13071	3125	109
2	13080	3130	110
2	13096	3130	110
2	13110	3135	110
2	13117	3140	111
2	13127	3140	111
2	13141	3145	111
2	13149	3150	112
2	13162	3150	112
2	13175	3155	112
2	13186	3160	113
2	13203	3160	113
2	13216	3165	113
2	13225	3170	114
2	13241	3170	114
2	13260	3175	114
2	13265	3180	115
2	13278	3180	115
2	13294	3185	115
2	13303	3190	116
2	13318	3190	116
2	13329	3195	116
2	13339	3200	117
2	13355	3200	117
2	13378	3205	117
2	13388	3210	118
2	13406	3210	118
2	13417	3215	118
2	13426	3220	119
2	13440	3220	119
2	13455	3225	119
2	13466	3230	120
2	13482	3230	120
2	13498	3235	120
2	13508	3240	121
2	13526	3240	121
2	13545	3245	121
2	13555	3250	122
2	13575	3250	122
2	13596	3255	122
2	13605	3260	123
2	13622	3260	123
2	13635	3265	123
2	13644	3270	124
2	13661	3270	124
2	13679	3275	124
2	13686	3280	125
2	13702	3280	125
2	13722	3285	125
2	13732	3290	126
2	13750	3290	126
2	13765	3295	126
2	13774	3300	127
2	13790	3300	127
2	13814	3305	127
2	13821	3310	128
2	13838	3310	128
2	13851	3315	128
2	13859	3320	129
2	13874	3320	129
2	13889	3325	129
2	13900	3330	130
2	13918	3330	130
2	13937	3335	130
2	13945	3340	131
2	13964	3340	131
2	13983	3345	131
2	13992	3350	132
2	14010	3350	132
2	14025	3355	132
2	14034	3360	133
2	14050	3360	133
2	14074	3365	133
2	14081	3370	134
2	14099	3370	134
2	14114	3375	134
2	14119	3380	135
2	14129	3380	135
2	14143	3385	135
2	14153	3390	136
2	14167	3390	136
2	14182	3395	136
2	14193	3400	137
2	14209	3400	137
2	14229	3405	137
2	14237	3410	138
2	14254	3410	138
2	14267	3415	138
2	14275	3420	139
2	14289	3420	139
2	14307	3425	139
2	14316	3430	140
2	14332	3430	140
2	14350	3435	140
2	14358	3440	141
2	14375	3440	141
2	14395	3445	141
2	14403	3450	142
2	14422	3450	142
2	14441	3455	142
2	14451	3460	143
2	14473	3460	143
2	14496	3465	143
2	14505	3470	144
2	14525	3470	144
2	14542	3475	144
2	14551	3480	145
2	14569	3480	145
2	14587	3485	145
2	14592	3490	146
2	14605	3490	146
2	14621	3495	146
2	14629	3500	147
2	14644	3500	147
2	14657	3505	147
2	14666	3510	148
2	14682	3510	148
2	14700	3515	148
2	14708	3520	149
2	14724	3520	149
2	14744	3525	149
2	14753	3530	150
2	14771	3530	150
2	14790	3535	150
2	14800	3540	151
2	14818	3540	151
2	14836	3545	151
2	14845	3550	152
2	14860	3550	152
2	14876	3555	152
2	14885	3560	153
2	14901	3560	153
2	14918	3565	153
2	14930	3570	154
2	14948	3570	154
2	14960	3575	154
2	14968	3580	155
2	14983	3580	155
2	14998	3585	155
2	15005	3590	156
2	15018	3590	156
2	15035	3595	156
2	15043	3600	157
2	15059	3600	157
3	4	5	0
3	12	10	1
3	21	10	1
3	39	15	0
3	49	20	1
3	58	20	1
3	70	25	0
3	83	30	1
3	96	30	1
3	115	35	0
3	126	40	1
3	140	40	1
3	160	45	0
3	171	50	1
3	183	50	1
3	201	55	0
3	212	60	1
3	223	60	1
3	242	65	0
3	255	70	1
3	268	70	1
3	287	75	0
3	295	80	1
3	304	80	1
3	317	85	0
3	331	90	1
3	344	90	1
3	361	95	1
3	374	100	2
3	389	100	2
3	410	105	2
3	416	110	3
3	427	110	2
3	444	115	1
3	457	120	2
3	466	120	1
3	482	125	0
3	497	130	1
3	509	130	1
3	525	135	0
3	539	140	1
3	552	140	1
3	566	145	0
3	578	150	1
3	589	150	1
3	605	155	0
3	621	160	1
3	634	160	1
3	649	165	0
3	663	170	1
3	673	170	1
3	683	175	0
3	697	180	1
3	706	180	1
3	717	185	1
3	730	190	2
3	741	190	2
3	762	195	2
3	771	200	3
3	783	200	3
3	805	205	3
3	812	210	4
3	826	210	4
3	848	215	4
3	853	220	5
3	866	220	5
3	879	225	4
3	893	230	5
3	904	230	4
3	921	235	3
3	935	240	4
3	942	240	3
3	958	245	2
3	976	250	3
3	983	250	2
3	1001	255	1
3	1021	260	2
3	1028	260	1
3	1050	265	0
3	1068	270	1
3	1082	270	1
3	1098	275	0
3	1110	280	1
3	1124	280	1
3	1141	285	0
3	1154	290	1
3	1168	290	1
3	1187	295	0
3	1200	300	1
3	1217	300	1
3	1238	305	0
3	1250	310	1
3	1267	310	1
3	1287	315	1
3	1296	320	2
3	1310	320	2
3	1328	325	2
3	1336	330	3
3	1350	330	3
3	1366	335	2
3	1378	340	3
3	1387	340	2
3	1402	345	2
3	1414	350	3
3	1424	350	3
3	1438	355	3
3	1446	360	4
3	1456	360	4
3	1472	365	3
3	1487	370	4
3	1496	370	3
3	1510	375	2
3	1527	380	3
3	1536	380	2
3	1558	385	1
3	1581	390	2
3	1590	390	1
3	1611	395	0
3	1630	400	1
3	1645	400	1
3	1659	405	1
3	1670	410	2
3	1682	410	2
3	1692	415	2
3	1700	420	3
3	1711	420	3
3	1722	425	2
3	1736	430	3
3	1743	430	2
3	1759	435	1
3	1777	440	2
3	1784	440	1
3	1801	445	0
3	1818	450	1
3	1833	450	1
3	1850	455	0
3	1860	460	1
3	1874	460	1
3	1889	465	0
3	1901	470	1
3	1917	470	1
3	1939	475	0
3	1954	480	1
3	1975	480	1
3	1995	485	0
3	2002	490	1
3	2017	490	1
3	2031	495	0
3	2043	500	1
3	2059	500	1
3	2077	505	0
3	2089	510	1
3	2103	510	1
3	2117	515	0
3	2129	520	1
3	2143	520	1
3	2157	525	0
3	2167	530	1
3	2179	530	1
3	2198	535	0
3	2214	540	1
3	2228	540	1
3	2240	545	0
3	2252	550	1
3	2264	550	1
3	2278	555	0
3	2292	560	1
3	2307	560	1
3	2327	565	0
3	2342	570	1
3	2361	570	1
3	2380	575	1
3	2386	580	2
3	2398	580	2
3	2411	585	2
3	2422	590	3
3	2438	590	3
3	2458	595	3
3	2467	600	4
3	2485	600	4
3	2506	605	3
3	2517	610	4
3	2528	610	3
3	2536	615	2
3	2549	620	3
3	2556	620	2
3	2569	625	1
3	2585	630	2
3	2592	630	1
3	2611	635	0
3	2633	640	1
3	2649	640	1
3	2663	645	0
3	2675	650	1
3	2689	650	1
3	2706	655	0
3	2717	660	1
3	2730	660	1
3	2746	665	1
3	2757	670	2
3	2770	670	2
3	2788	675	2
3	2798	680	3
3	2811	680	3
3	2824	685	3
3	2833	690	4
3	2844	690	4
3	2860	695	4
3	2869	700	5
3	2883	700	5
3	2899	705	4
3	2915	710	5
3	2928	710	4
3	2951	715	3
3	2968	720	4
3	2978	720	4
3	3000	725	4
3	3012	730	5
3	3029	730	5
3	3045	735	5
3	3054	740	6
3	3070	740	6
3	3086	745	5
3	3098	750	6
3	3109	750	5
3	3126	755	4
3	3142	760	5
3	3152	760	4
3	3168	765	4
3	3180	770	5
3	3192	770	5
3	3211	775	5
3	3222	780	6
3	3242	780	6
3	3263	785	6
3	3271	790	7
3	3289	790	7
3	3308	795	7
3	3318	800	8
3	3334	800	8
3	3354	805	8
3	3363	810	9
3	3378	810	9
3	3393	815	9
3	3401	820	10
3	3415	820	10
3	3432	825	10
3	3442	830	11
3	3457	830	11
3	3480	835	11
3	3490	840	12
3	3507	840	11
3	3528	845	10
3	3541	850	11
3	3554	850	10
3	3574	855	10
3	3586	860	11
3	3602	860	11
3	3622	865	11
3	3630	870	12
3	3644	870	12
3	3659	875	11
3	3672	880	12
3	3683	880	11
3	3701	885	10
3	3718	890	11
3	3727	890	10
3	3743	895	9
3	3763	900	10
3	3770	900	9
3	3790	905	9
3	3808	910	10
3	3823	910	10
3	3846	915	10
3	3855	920	11
3	3870	920	10
3	3891	925	9
3	3905	930	10
3	3918	930	9
3	3938	935	8
3	3953	940	9
3	3966	940	8
3	3985	945	8
3	3998	950	9
3	4013	950	9
3	4036	955	9
3	4045	960	10
3	4062	960	10
3	4087	965	10
3	4095	970	11
3	4112	970	11
3	4132	975	10
3	4143	980	11
3	4153	980	11
3	4169	985	11
3	4174	990	12
3	4183	990	12
3	4195	995	12
3	4206	1000	13
3	4215	1000	12
3	4233	1005	11
3	4252	1010	12
3	4261	1010	11
3	4284	1015	11
3	4300	1020	12
3	4315	1020	12
3	4330	1025	12
3	4340	1030	13
3	4351	1030	12
3	4368	1035	11
3	4383	1040	12
3	4393	1040	12
3	4414	1045	12
3	4423	1050	13
3	4437	1050	13
3	4460	1055	13
3	4470	1060	14
3	4486	1060	14
3	4505	1065	14
3	4509	1070	15
3	4520	1070	15
3	4535	1075	15
3	4545	1080	16
3	4557	1080	16
3	4572	1085	16
3	4581	1090	17
3	4596	1090	17
3	4611	1095	16
3	4620	1100	17
3	4628	1100	17
3	4640	1105	17
3	4649	1110	18
3	4659	1110	18
3	4674	1115	17
3	4687	1120	18
3	4694	1120	18
3	4714	1125	18
3	4723	1130	19
3	4738	1130	19
3	4756	1135	18
3	4770	1140	19
3	4781	1140	18
3	4796	1145	17
3	4810	1150	18
3	4817	1150	17
3	4832	1155	16
3	4851	1160	17
3	4858	1160	16
3	4874	1165	15
3	4892	1170	16
3	4899	1170	15
3	4918	1175	14
3	4940	1180	15
3	4947	1180	14
3	4965	1185	14
3	4980	1190	15
3	4993	1190	15
3	5011	1195	15
3	5018	1200	16
3	5031	1200	16
3	5047	1205	15
3	5060	1210	16
3	5069	1210	15
3	5088	1215	14
3	5103	1220	15
3	5112	1220	14
3	5129	1225	13
3	5145	1230	14
3	5154	1230	13
3	5171	1235	12
3	5189	1240	13
3	5197	1240	12
3	5214	1245	11
3	5231	1250	12
3	5238	1250	11
3	5254	1255	11
3	5268	1260	12
3	5281	1260	12
3	5298	1265	12
3	5303	1270	13
3	5314	1270	13
3	5325	1275	13
3	5335	1280	14
3	5346	1280	13
3	5362	1285	12
3	5378	1290	13
3	5388	1290	13
3	5409	1295	13
3	5416	1300	14
3	5429	1300	14
3	5444	1305	14
3	5453	1310	15
3	5467	1310	15
3	5487	1315	14
3	5503	1320	15
3	5517	1320	15
3	5535	1325	15
3	5544	1330	16
3	5558	1330	16
3	5572	1335	16
3	5582	1340	17
3	5597	1340	17
3	5615	1345	16
3	5629	1350	17
3	5640	1350	16
3	5656	1355	15
3	5670	1360	16
3	5681	1360	16
3	5698	1365	16
3	5707	1370	17
3	5721	1370	17
3	5739	1375	17
3	5751	1380	18
3	5766	1380	17
3	5787	1385	16
3	5802	1390	17
3	5813	1390	16
3	5834	1395	15
3	5853	1400	16
3	5863	1400	16
3	5881	1405	16
3	5887	1410	17
3	5898	1410	17
3	5911	1415	16
3	5927	1420	17
3	5937	1420	17
3	5960	1425	17
3	5969	1430	18
3	5985	1430	18
3	6003	1435	18
3	6012	1440	19
3	6030	1440	19
3	6047	1445	19
3	6055	1450	20
3	6068	1450	19
3	6085	1455	18
3	6098	1460	19
3	6108	1460	18
3	6123	1465	18
3	6134	1470	19
3	6146	1470	19
3	6159	1475	19
3	6169	1480	20
3	6179	1480	20
3	6197	1485	20
3	6205	1490	21
3	6220	1490	21
3	6236	1495	21
3	6244	1500	22
3	6258	1500	22
3	6273	1505	22
3	6283	1510	23
3	6296	1510	22
3	6314	1515	21
3	6328	1520	22
3	6338	1520	21
3	6352	1525	20
3	6366	1530	21
3	6374	1530	20
3	6386	1535	19
3	6402	1540	20
3	6409	1540	19
3	6426	1545	18
3	6447	1550	19
3	6454	1550	18
3	6476	1555	17
3	6497	1560	18
3	6504	1560	17
3	6521	1565	16
3	6536	1570	17
3	6543	1570	16
3	6559	1575	15
3	6578	1580	16
3	6585	1580	16
3	6608	1585	16
3	6616	1590	17
3	6630	1590	17
3	6648	1595	17
3	6657	1600	18
3	6670	1600	17
3	6687	1605	16
3	6701	1610	17
3	6714	1610	16
3	6734	1615	16
3	6746	1620	17
3	6760	1620	17
3	6783	1625	17
3	6793	1630	18
3	6813	1630	18
3	6834	1635	18
3	6842	1640	19
3	6857	1640	18
3	6875	1645	17
3	6886	1650	18
3	6897	1650	17
3	6912	1655	16
3	6926	1660	17
3	6933	1660	16
3	6950	1665	15
3	6970	1670	16
3	6977	1670	16
3	7002	1675	16
3	7012	1680	17
3	7030	1680	17
3	7048	1685	16
3	7056	1690	17
3	7065	1690	16
3	7081	1695	16
3	7093	1700	17
3	7105	1700	17
3	7121	1705	17
3	7130	1710	18
3	7144	1710	18
3	7162	1715	17
3	7175	1720	18
3	7184	1720	17
3	7201	1725	17
3	7215	1730	18
3	7231	1730	18
3	7248	1735	18
3	7258	1740	19
3	7276	1740	19
3	7300	1745	19
3	7310	1750	20
3	7327	1750	19
3	7344	1755	19
3	7354	1760	20
3	7366	1760	20
3	7381	1765	20
3	7390	1770	21
3	7405	1770	21
3	7425	1775	21
3	7434	1780	22
3	7447	1780	21
3	7462	1785	20
3	7478	1790	21
3	7488	1790	20
3	7502	1795	19
3	7515	1800	20
3	7522	1800	19
3	7538	1805	18
3	7560	1810	19
3	7567	1810	18
3	7586	1815	17
3	7606	1820	18
3	7613	1820	17
3	7634	1825	16
3	7657	1830	17
3	7664	1830	16
3	7686	1835	16
3	7705	1840	17
3	7719	1840	17
3	7736	1845	17
3	7744	1850	18
3	7759	1850	18
3	7775	1855	18
3	7785	1860	19
3	7800	1860	19
3	7811	1865	19
3	7819	1870	20
3	7831	1870	20
3	7849	1875	20
3	7858	1880	21
3	7872	1880	21
3	7892	1885	21
3	7904	1890	22
3	7918	1890	21
3	7937	1895	20
3	7952	1900	21
3	7965	1900	20
3	7985	1905	20
3	7996	1910	21
3	8009	1910	21
3	8018	1915	21
3	8026	1920	22
3	8037	1920	22
3	8051	1925	22
3	8060	1930	23
3	8071	1930	22
3	8088	1935	21
3	8106	1940	22
3	8117	1940	22
3	8143	1945	22
3	8153	1950	23
3	8173	1950	23
3	8194	1955	23
3	8203	1960	24
3	8221	1960	24
3	8238	1965	24
3	8248	1970	25
3	8263	1970	24
3	8280	1975	24
3	8288	1980	25
3	8299	1980	25
3	8313	1985	25
3	8321	1990	26
3	8334	1990	26
3	8349	1995	26
3	8358	2000	27
3	8372	2000	27
3	8388	2005	26
3	8402	2010	27
3	8413	2010	26
3	8430	2015	26
3	8441	2020	27
3	8453	2020	27
3	8466	2025	27
3	8479	2030	28
3	8490	2030	28
3	8514	2035	28
3	8523	2040	29
3	8537	2040	29
3	8551	2045	29
3	8558	2050	30
3	8569	2050	30
3	8582	2055	30
3	8592	2060	31
3	8601	2060	30
3	8617	2065	29
3	8635	2070	30
3	8644	2070	29
3	8666	2075	28
3	8687	2080	29
3	8696	2080	28
3	8719	2085	28
3	8734	2090	29
3	8746	2090	29
3	8758	2095	29
3	8766	2100	30
3	8777	2100	30
3	8793	2105	30
3	8802	2110	31
3	8817	2110	31
3	8835	2115	30
3	8849	2120	31
3	8862	2120	30
3	8883	2125	29
3	8897	2130	30
3	8907	2130	30
3	8925	2135	30
3	8934	2140	31
3	8948	2140	31
3	8965	2145	31
3	8974	2150	32
3	8988	2150	32
3	9006	2155	31
3	9019	2160	32
3	9028	2160	31
3	9045	2165	30
3	9060	2170	31
3	9067	2170	30
3	9084	2175	30
3	9101	2180	31
3	9115	2180	31
3	9127	2185	31
3	9138	2190	32
3	9154	2190	32
3	9170	2195	31
3	9181	2200	32
3	9194	2200	31
3	9211	2205	31
3	9221	2210	32
3	9234	2210	32
3	9249	2215	32
3	9256	2220	33
3	9267	2220	33
3	9280	2225	32
3	9292	2230	33
3	9300	2230	32
3	9313	2235	31
3	9330	2240	32
3	9337	2240	31
3	9354	2245	30
3	9374	2250	31
3	9381	2250	30
3	9402	2255	29
3	9422	2260	30
3	9429	2260	29
3	9449	2265	28
3	9470	2270	29
3	9477	2270	29
3	9502	2275	29
3	9510	2280	30
3	9525	2280	30
3	9539	2285	30
3	9547	2290	31
3	9561	2290	31
3	9575	2295	31
3	9586	2300	32
3	9600	2300	32
3	9612	2305	32
3	9623	2310	33
3	9637	2310	33
3	9645	2315	32
3	9659	2320	33
3	9668	2320	32
3	9685	2325	31
3	9703	2330	32
3	9712	2330	31
3	9728	2335	30
3	9745	2340	31
3	9753	2340	30
3	9768	2345	29
3	9787	2350	30
3	9794	2350	29
3	9814	2355	28
3	9829	2360	29
3	9836	2360	28
3	9851	2365	27
3	9868	2370	28
3	9875	2370	27
3	9888	2375	26
3	9903	2380	27
3	9910	2380	26
3	9927	2385	25
3	9948	2390	26
3	9955	2390	25
3	9972	2395	24
3	9991	2400	25
3	9998	2400	25
3	10015	2405	25
3	10025	2410	26
3	10036	2410	26
3	10055	2415	26
3	10066	2420	27
3	10083	2420	27
3	10103	2425	26
3	10117	2430	27
3	10134	2430	26
3	10159	2435	25
3	10175	2440	26
3	10192	2440	25
3	10217	2445	24
3	10233	2450	25
3	10246	2450	24
3	10259	2455	24
3	10271	2460	25
3	10282	2460	25
3	10296	2465	25
3	10306	2470	26
3	10319	2470	26
3	10340	2475	26
3	10351	2480	27
3	10368	2480	26
3	10389	2485	26
3	10401	2490	27
3	10421	2490	27
3	10440	2495	27
3	10447	2500	28
3	10463	2500	28
3	10479	2505	28
3	10489	2510	29
3	10502	2510	29
3	10518	2515	29
3	10526	2520	30
3	10541	2520	30
3	10562	2525	30
3	10571	2530	31
3	10591	2530	31
3	10612	2535	31
3	10621	2540	32
3	10638	2540	31
3	10657	2545	30
3	10667	2550	31
3	10679	2550	31
3	10696	2555	31
3	10705	2560	32
3	10719	2560	32
3	10736	2565	32
3	10747	2570	33
3	10762	2570	32
3	10783	2575	31
3	10797	2580	32
3	10812	2580	31
3	10834	2585	30
3	10850	2590	31
3	10864	2590	30
3	10882	2595	29
3	10896	2600	30
3	10909	2600	29
3	10928	2605	28
3	10940	2610	29
3	10949	2610	28
3	10966	2615	27
3	10985	2620	28
3	10993	2620	27
3	11006	2625	26
3	11021	2630	27
3	11028	2630	26
3	11043	2635	25
3	11060	2640	26
3	11067	2640	25
3	11084	2645	24
3	11104	2650	25
3	11111	2650	25
3	11136	2655	25
3	11144	2660	26
3	11159	2660	26
3	11176	2665	26
3	11185	2670	27
3	11202	2670	27
3	11221	2675	27
3	11230	2680	28
3	11245	2680	27
3	11262	2685	27
3	11269	2690	28
3	11280	2690	28
3	11291	2695	28
3	11301	2700	29
3	11316	2700	29
3	11332	2705	29
3	11341	2710	30
3	11354	2710	29
3	11367	2715	29
3	11379	2720	30
3	11394	2720	30
3	11409	2725	30
3	11417	2730	31
3	11432	2730	31
3	11445	2735	30
3	11458	2740	31
3	11467	2740	30
3	11484	2745	29
3	11502	2750	30
3	11511	2750	30
3	11535	2755	30
3	11545	2760	31
3	11561	2760	31
3	11575	2765	30
3	11589	2770	31
3	11602	2770	30
3	11620	2775	29
3	11632	2780	30
3	11642	2780	29
3	11654	2785	28
3	11666	2790	29
3	11675	2790	28
3	11690	2795	27
3	11703	2800	28
3	11712	2800	28
3	11728	2805	28
3	11737	2810	29
3	11752	2810	29
3	11770	2815	29
3	11779	2820	30
3	11795	2820	30
3	11806	2825	29
3	11816	2830	30
3	11825	2830	29
3	11839	2835	28
3	11853	2840	29
3	11862	2840	28
3	11878	2845	27
3	11891	2850	28
3	11900	2850	27
3	11916	2855	26
3	11933	2860	27
3	11941	2860	26
3	11955	2865	25
3	11971	2870	26
3	11978	2870	25
3	11993	2875	24
3	12009	2880	25
3	12016	2880	24
3	12033	2885	23
3	12054	2890	24
3	12061	2890	23
3	12083	2895	22
3	12103	2900	23
3	12110	2900	22
3	12129	2905	21
3	12149	2910	22
3	12156	2910	21
3	12175	2915	20
3	12195	2920	21
3	12202	2920	20
3	12222	2925	19
3	12244	2930	20
3	12251	2930	19
3	12272	2935	18
3	12295	2940	19
3	12302	2940	19
3	12330	2945	19
3	12337	2950	20
3	12351	2950	20
3	12366	2955	19
3	12378	2960	20
3	12391	2960	19
3	12408	2965	18
3	12422	2970	19
3	12434	2970	18
3	12451	2975	17
3	12467	2980	18
3	12478	2980	17
3	12497	2985	16
3	12512	2990	17
3	12521	2990	16
3	12538	2995	15
3	12555	3000	16
3	12564	3000	15
3	12583	3005	14
3	12599	3010	15
3	12606	3010	14
3	12623	3015	13
3	12642	3020	14
3	12649	3020	14
3	12669	3025	14
3	12675	3030	15
3	12686	3030	15
3	12697	3035	15
3	12706	3040	16
3	12719	3040	16
3	12733	3045	16
3	12744	3050	17
3	12757	3050	17
3	12772	3055	17
3	12781	3060	18
3	12793	3060	18
3	12803	3065	18
3	12812	3070	19
3	12825	3070	19
3	12838	3075	19
3	12848	3080	20
3	12864	3080	20
3	12884	3085	20
3	12893	3090	21
3	12911	3090	21
3	12930	3095	20
3	12942	3100	21
3	12959	3100	20
3	12980	3105	19
3	12992	3110	20
3	13007	3110	20
3	13025	3115	20
3	13035	3120	21
3	13053	3120	21
3	13072	3125	21
3	13081	3130	22
3	13097	3130	22
3	13109	3135	22
3	13118	3140	23
3	13128	3140	23
3	13142	3145	23
3	13150	3150	24
3	13163	3150	24
3	13176	3155	24
3	13187	3160	25
3	13197	3160	24
3	13211	3165	23
3	13226	3170	24
3	13235	3170	23
3	13254	3175	23
3	13266	3180	24
3	13279	3180	24
3	13295	3185	24
3	13304	3190	25
3	13316	3190	25
3	13330	3195	25
3	13340	3200	26
3	13356	3200	26
3	13379	3205	26
3	13389	3210	27
3	13404	3210	26
3	13415	3215	25
3	13427	3220	26
3	13438	3220	25
3	13453	3225	24
3	13467	3230	25
3	13478	3230	25
3	13499	3235	25
3	13509	3240	26
3	13527	3240	26
3	13546	3245	26
3	13556	3250	27
3	13573	3250	26
3	13594	3255	25
3	13606	3260	26
3	13620	3260	25
3	13632	3265	24
3	13645	3270	25
3	13656	3270	24
3	13674	3275	23
3	13687	3280	24
3	13698	3280	23
3	13716	3285	22
3	13733	3290	23
3	13743	3290	22
3	13759	3295	21
3	13775	3300	22
3	13784	3300	21
3	13804	3305	20
3	13822	3310	21
3	13831	3310	21
3	13852	3315	21
3	13860	3320	22
3	13875	3320	22
3	13890	3325	22
3	13901	3330	23
3	13915	3330	22
3	13932	3335	21
3	13946	3340	22
3	13959	3340	21
3	13978	3345	20
3	13993	3350	21
3	14005	3350	20
3	14021	3355	19
3	14035	3360	20
3	14046	3360	19
3	14066	3365	19
3	14082	3370	20
3	14100	3370	20
3	14115	3375	20
3	14120	3380	21
3	14130	3380	21
3	14144	3385	21
3	14154	3390	22
3	14165	3390	21
3	14180	3395	20
3	14194	3400	21
3	14204	3400	20
3	14220	3405	19
3	14238	3410	20
3	14247	3410	19
3	14262	3415	18
3	14276	3420	19
3	14283	3420	18
3	14299	3425	17
3	14317	3430	18
3	14324	3430	17
3	14342	3435	16
3	14359	3440	17
3	14366	3440	16
3	14384	3445	15
3	14404	3450	16
3	14411	3450	15
3	14430	3455	14
3	14452	3460	15
3	14459	3460	14
3	14482	3465	13
3	14506	3470	14
3	14513	3470	13
3	14532	3475	12
3	14552	3480	13
3	14559	3480	12
3	14579	3485	12
3	14593	3490	13
3	14606	3490	13
3	14622	3495	13
3	14630	3500	14
3	14645	3500	14
3	14658	3505	14
3	14667	3510	15
3	14683	3510	15
3	14698	3515	14
3	14709	3520	15
3	14720	3520	14
3	14738	3525	13
3	14754	3530	14
3	14765	3530	13
3	14784	3535	12
3	14801	3540	13
3	14811	3540	12
3	14828	3545	11
3	14846	3550	12
3	14855	3550	11
3	14870	3555	10
3	14886	3560	11
3	14895	3560	10
3	14912	3565	9
3	14931	3570	10
3	14939	3570	10
3	14961	3575	10
3	14969	3580	11
3	14984	3580	11
3	14999	3585	11
3	15006	3590	12
3	15019	3590	12
3	15030	3595	11
3	15044	3600	12
3	15051	3600	11
4	5	5	0
4	13	10	1
4	22	10	1
4	41	15	1
4	50	20	2
4	59	20	2
4	75	25	2
4	84	30	3
4	97	30	3
4	119	35	3
4	127	40	4
4	141	40	4
4	162	45	3
4	172	50	4
4	180	50	3
4	197	55	2
4	213	60	3
4	219	60	2
4	236	65	1
4	256	70	2
4	262	70	1
4	281	75	0
4	296	80	1
4	305	80	1
4	319	85	0
4	332	90	1
4	345	90	1
4	362	95	0
4	375	100	1
4	390	100	1
4	406	105	0
4	417	110	1
4	430	110	1
4	447	115	0
4	458	120	1
4	470	120	1
4	484	125	0
4	498	130	1
4	510	130	1
4	527	135	0
4	540	140	1
4	553	140	1
4	568	145	0
4	579	150	1
4	590	150	1
4	607	155	0
4	622	160	1
4	635	160	1
4	651	165	0
4	664	170	1
4	674	170	1
4	685	175	0
4	698	180	1
4	707	180	1
4	718	185	0
4	731	190	1
4	742	190	1
4	758	195	0
4	772	200	1
4	784	200	1
4	798	205	0
4	813	210	1
4	827	210	1
4	843	215	0
4	854	220	1
4	867	220	1
4	881	225	0
4	894	230	1
4	909	230	1
4	924	235	0
4	936	240	1
4	950	240	1
4	964	245	0
4	977	250	1
4	993	250	1
4	1009	255	0
4	1022	260	1
4	1039	260	1
4	1059	265	0
4	1069	270	1
4	1083	270	1
4	1100	275	0
4	1111	280	1
4	1125	280	1
4	1143	285	0
4	1155	290	1
4	1169	290	1
4	1189	295	0
4	1201	300	1
4	1218	300	1
4	1240	305	0
4	1251	310	1
4	1268	310	1
4	1288	315	0
4	1297	320	1
4	1311	320	1
4	1325	325	0
4	1337	330	1
4	1351	330	1
4	1368	335	0
4	1379	340	1
4	1391	340	1
4	1405	345	0
4	1415	350	1
4	1425	350	1
4	1435	355	0
4	1447	360	1
4	1457	360	1
4	1474	365	1
4	1488	370	2
4	1501	370	2
4	1515	375	2
4	1528	380	3
4	1542	380	2
4	1564	385	1
4	1582	390	2
4	1596	390	2
4	1621	395	2
4	1631	400	3
4	1646	400	3
4	1660	405	2
4	1671	410	3
4	1680	410	3
4	1693	415	3
4	1701	420	4
4	1712	420	4
4	1725	425	4
4	1737	430	5
4	1752	430	5
4	1765	435	4
4	1778	440	5
4	1790	440	4
4	1807	445	3
4	1819	450	4
4	1829	450	3
4	1847	455	3
4	1861	460	4
4	1875	460	4
4	1892	465	4
4	1902	470	5
4	1918	470	5
4	1941	475	4
4	1955	480	5
4	1971	480	4
4	1992	485	4
4	2003	490	5
4	2018	490	5
4	2035	495	5
4	2044	500	6
4	2060	500	6
4	2079	505	5
4	2090	510	6
4	2100	510	5
4	2113	515	4
4	2130	520	5
4	2138	520	4
4	2153	525	3
4	2168	530	4
4	2174	530	3
4	2192	535	2
4	2215	540	3
4	2221	540	3
4	2245	545	3
4	2253	550	4
4	2265	550	4
4	2283	555	4
4	2293	560	5
4	2308	560	5
4	2333	565	5
4	2343	570	6
4	2359	570	5
4	2379	575	5
4	2387	580	6
4	2399	580	6
4	2412	585	6
4	2423	590	7
4	2439	590	7
4	2455	595	6
4	2468	600	7
4	2480	600	6
4	2501	605	5
4	2518	610	6
4	2526	610	6
4	2542	615	6
4	2550	620	7
4	2560	620	7
4	2571	625	6
4	2586	630	7
4	2594	630	6
4	2613	635	5
4	2634	640	6
4	2640	640	5
4	2657	645	4
4	2676	650	5
4	2682	650	4
4	2700	655	4
4	2718	660	5
4	2731	660	5
4	2749	665	5
4	2758	670	6
4	2771	670	6
4	2789	675	6
4	2799	680	7
4	2812	680	7
4	2825	685	7
4	2834	690	8
4	2845	690	8
4	2861	695	8
4	2870	700	9
4	2884	700	9
4	2904	705	9
4	2916	710	10
4	2936	710	10
4	2959	715	10
4	2969	720	11
4	2985	720	11
4	3001	725	11
4	3013	730	12
4	3025	730	11
4	3040	735	10
4	3055	740	11
4	3065	740	10
4	3083	745	10
4	3099	750	11
4	3114	750	11
4	3131	755	11
4	3143	760	12
4	3159	760	12
4	3173	765	12
4	3181	770	13
4	3193	770	13
4	3206	775	12
4	3223	780	13
4	3233	780	12
4	3254	785	11
4	3272	790	12
4	3280	790	11
4	3301	795	11
4	3319	800	12
4	3335	800	12
4	3355	805	12
4	3364	810	13
4	3379	810	13
4	3394	815	13
4	3402	820	14
4	3412	820	13
4	3428	825	12
4	3443	830	13
4	3451	830	12
4	3470	835	11
4	3491	840	12
4	3499	840	11
4	3521	845	10
4	3542	850	11
4	3548	850	10
4	3568	855	9
4	3587	860	10
4	3593	860	9
4	3611	865	8
4	3631	870	9
4	3637	870	9
4	3664	875	9
4	3673	880	10
4	3688	880	10
4	3708	885	10
4	3719	890	11
4	3735	890	11
4	3754	895	11
4	3764	900	12
4	3778	900	11
4	3796	905	10
4	3809	910	11
4	3819	910	10
4	3838	915	9
4	3856	920	10
4	3864	920	9
4	3886	925	9
4	3906	930	10
4	3922	930	10
4	3944	935	10
4	3954	940	11
4	3970	940	11
4	3990	945	11
4	3999	950	12
4	4009	950	11
4	4028	955	10
4	4046	960	11
4	4056	960	10
4	4077	965	9
4	4096	970	10
4	4106	970	9
4	4128	975	9
4	4144	980	10
4	4155	980	10
4	4170	985	10
4	4175	990	11
4	4184	990	11
4	4191	995	10
4	4207	1000	11
4	4213	1000	10
4	4231	1005	9
4	4253	1010	10
4	4259	1010	9
4	4282	1015	8
4	4301	1020	9
4	4307	1020	8
4	4324	1025	8
4	4341	1030	9
4	4356	1030	9
4	4373	1035	9
4	4384	1040	10
4	4399	1040	10
4	4415	1045	10
4	4424	1050	11
4	4438	1050	11
4	4456	1055	10
4	4471	1060	11
4	4482	1060	10
4	4498	1065	10
4	4510	1070	11
4	4521	1070	11
4	4536	1075	11
4	4546	1080	12
4	4558	1080	12
4	4569	1085	11
4	4582	1090	12
4	4590	1090	11
4	4606	1095	11
4	4621	1100	12
4	4631	1100	12
4	4641	1105	12
4	4650	1110	13
4	4660	1110	13
4	4679	1115	13
4	4688	1120	14
4	4700	1120	14
4	4711	1125	13
4	4724	1130	14
4	4732	1130	13
4	4750	1135	12
4	4771	1140	13
4	4779	1140	13
4	4803	1145	13
4	4811	1150	14
4	4823	1150	14
4	4838	1155	13
4	4852	1160	14
4	4862	1160	14
4	4882	1165	14
4	4893	1170	15
4	4908	1170	15
4	4930	1175	15
4	4941	1180	16
4	4956	1180	16
4	4973	1185	16
4	4981	1190	17
4	4994	1190	17
4	5012	1195	17
4	5019	1200	18
4	5032	1200	18
4	5053	1205	18
4	5061	1210	19
4	5073	1210	18
4	5091	1215	18
4	5104	1220	19
4	5118	1220	19
4	5138	1225	19
4	5146	1230	20
4	5160	1230	20
4	5180	1235	20
4	5190	1240	21
4	5201	1240	20
4	5218	1245	20
4	5232	1250	21
4	5245	1250	21
4	5260	1255	21
4	5269	1260	22
4	5277	1260	21
4	5293	1265	21
4	5304	1270	22
4	5315	1270	22
4	5326	1275	22
4	5336	1280	23
4	5349	1280	23
4	5367	1285	23
4	5379	1290	24
4	5393	1290	23
4	5406	1295	22
4	5417	1300	23
4	5425	1300	22
4	5439	1305	21
4	5454	1310	22
4	5462	1310	21
4	5481	1315	20
4	5504	1320	21
4	5512	1320	20
4	5528	1325	19
4	5545	1330	20
4	5552	1330	20
4	5573	1335	20
4	5583	1340	21
4	5598	1340	21
4	5621	1345	21
4	5630	1350	22
4	5646	1350	22
4	5658	1355	21
4	5671	1360	22
4	5682	1360	22
4	5699	1365	22
4	5708	1370	23
4	5722	1370	23
4	5740	1375	23
4	5752	1380	24
4	5768	1380	23
4	5789	1385	22
4	5803	1390	23
4	5815	1390	22
4	5836	1395	21
4	5854	1400	22
4	5864	1400	22
4	5882	1405	22
4	5888	1410	23
4	5899	1410	23
4	5914	1415	23
4	5928	1420	24
4	5940	1420	23
4	5955	1425	22
4	5970	1430	23
4	5980	1430	22
4	5996	1435	21
4	6013	1440	22
4	6019	1440	21
4	6038	1445	20
4	6056	1450	21
4	6062	1450	20
4	6080	1455	19
4	6099	1460	20
4	6105	1460	20
4	6127	1465	20
4	6135	1470	21
4	6147	1470	21
4	6160	1475	21
4	6170	1480	22
4	6181	1480	22
4	6191	1485	21
4	6206	1490	22
4	6214	1490	21
4	6230	1495	20
4	6245	1500	21
4	6251	1500	20
4	6266	1505	19
4	6284	1510	20
4	6290	1510	19
4	6309	1515	18
4	6329	1520	19
4	6335	1520	18
4	6350	1525	17
4	6367	1530	18
4	6373	1530	18
4	6393	1535	18
4	6403	1540	19
4	6416	1540	19
4	6434	1545	18
4	6448	1550	19
4	6462	1550	18
4	6483	1555	18
4	6498	1560	19
4	6515	1560	19
4	6529	1565	19
4	6537	1570	20
4	6550	1570	20
4	6565	1575	19
4	6579	1580	20
4	6590	1580	19
4	6604	1585	18
4	6617	1590	19
4	6625	1590	18
4	6642	1595	17
4	6658	1600	18
4	6666	1600	17
4	6683	1605	16
4	6702	1610	17
4	6710	1610	16
4	6731	1615	15
4	6747	1620	16
4	6753	1620	15
4	6771	1625	14
4	6794	1630	15
4	6800	1630	14
4	6822	1635	13
4	6843	1640	14
4	6849	1640	13
4	6869	1645	13
4	6887	1650	14
4	6900	1650	14
4	6918	1655	14
4	6927	1660	15
4	6937	1660	14
4	6954	1665	13
4	6971	1670	14
4	6980	1670	14
4	7003	1675	14
4	7013	1680	15
4	7031	1680	15
4	7050	1685	15
4	7057	1690	16
4	7067	1690	15
4	7082	1695	14
4	7094	1700	15
4	7102	1700	14
4	7116	1705	13
4	7131	1710	14
4	7139	1710	13
4	7158	1715	13
4	7176	1720	14
4	7191	1720	14
4	7206	1725	14
4	7216	1730	15
4	7226	1730	14
4	7243	1735	13
4	7259	1740	14
4	7267	1740	13
4	7288	1745	12
4	7311	1750	13
4	7318	1750	13
4	7347	1755	13
4	7355	1760	14
4	7367	1760	14
4	7378	1765	13
4	7391	1770	14
4	7399	1770	13
4	7416	1775	12
4	7435	1780	13
4	7442	1780	13
4	7469	1785	13
4	7479	1790	14
4	7494	1790	14
4	7507	1795	14
4	7516	1800	15
4	7527	1800	15
4	7542	1805	14
4	7561	1810	15
4	7571	1810	14
4	7590	1815	13
4	7607	1820	14
4	7617	1820	13
4	7638	1825	12
4	7658	1830	13
4	7668	1830	12
4	7689	1835	12
4	7706	1840	13
4	7720	1840	13
4	7737	1845	13
4	7745	1850	14
4	7760	1850	14
4	7777	1855	14
4	7786	1860	15
4	7795	1860	15
4	7812	1865	15
4	7820	1870	16
4	7832	1870	16
4	7847	1875	15
4	7859	1880	16
4	7869	1880	15
4	7886	1885	14
4	7905	1890	15
4	7915	1890	14
4	7935	1895	13
4	7953	1900	14
4	7963	1900	13
4	7983	1905	12
4	7997	1910	13
4	8005	1910	13
4	8019	1915	13
4	8027	1920	14
4	8038	1920	14
4	8052	1925	14
4	8061	1930	15
4	8075	1930	15
4	8094	1935	15
4	8107	1940	16
4	8121	1940	15
4	8138	1945	14
4	8154	1950	15
4	8166	1950	14
4	8187	1955	13
4	8204	1960	14
4	8216	1960	14
4	8239	1965	14
4	8249	1970	15
4	8266	1970	15
4	8283	1975	15
4	8289	1980	16
4	8300	1980	16
4	8314	1985	16
4	8322	1990	17
4	8330	1990	16
4	8344	1995	15
4	8359	2000	16
4	8367	2000	15
4	8385	2005	14
4	8403	2010	15
4	8411	2010	14
4	8429	2015	14
4	8442	2020	15
4	8454	2020	15
4	8467	2025	15
4	8480	2030	16
4	8491	2030	15
4	8508	2035	14
4	8524	2040	15
4	8531	2040	15
4	8552	2045	15
4	8559	2050	16
4	8570	2050	16
4	8583	2055	16
4	8593	2060	17
4	8603	2060	16
4	8619	2065	15
4	8636	2070	16
4	8646	2070	15
4	8668	2075	14
4	8688	2080	15
4	8698	2080	14
4	8720	2085	14
4	8735	2090	15
4	8747	2090	15
4	8759	2095	15
4	8767	2100	16
4	8778	2100	16
4	8794	2105	16
4	8803	2110	17
4	8818	2110	17
4	8837	2115	16
4	8850	2120	17
4	8864	2120	16
4	8885	2125	15
4	8898	2130	16
4	8908	2130	15
4	8920	2135	14
4	8935	2140	15
4	8943	2140	14
4	8959	2145	13
4	8975	2150	14
4	8983	2150	13
4	9002	2155	13
4	9020	2160	14
4	9036	2160	14
4	9053	2165	14
4	9061	2170	15
4	9074	2170	15
4	9092	2175	15
4	9102	2180	16
4	9112	2180	15
4	9123	2185	14
4	9139	2190	15
4	9146	2190	14
4	9163	2195	13
4	9182	2200	14
4	9188	2200	13
4	9206	2205	13
4	9222	2210	14
4	9235	2210	14
4	9250	2215	14
4	9257	2220	15
4	9268	2220	15
4	9283	2225	15
4	9293	2230	16
4	9305	2230	16
4	9317	2235	15
4	9331	2240	16
4	9339	2240	15
4	9356	2245	14
4	9375	2250	15
4	9383	2250	14
4	9404	2255	13
4	9423	2260	14
4	9431	2260	13
4	9451	2265	12
4	9471	2270	13
4	9478	2270	13
4	9503	2275	13
4	9511	2280	14
4	9526	2280	14
4	9540	2285	14
4	9548	2290	15
4	9558	2290	14
4	9574	2295	14
4	9587	2300	15
4	9601	2300	15
4	9613	2305	15
4	9624	2310	16
4	9634	2310	16
4	9651	2315	16
4	9660	2320	17
4	9674	2320	17
4	9691	2325	16
4	9704	2330	17
4	9717	2330	17
4	9736	2335	17
4	9746	2340	18
4	9762	2340	18
4	9774	2345	17
4	9788	2350	18
4	9800	2350	17
4	9819	2355	17
4	9830	2360	18
4	9843	2360	18
4	9858	2365	18
4	9869	2370	19
4	9882	2370	19
4	9894	2375	19
4	9904	2380	20
4	9914	2380	19
4	9931	2385	18
4	9949	2390	19
4	9959	2390	18
4	9976	2395	17
4	9992	2400	18
4	10000	2400	18
4	10016	2405	18
4	10026	2410	19
4	10037	2410	19
4	10056	2415	19
4	10067	2420	20
4	10084	2420	20
4	10105	2425	20
4	10118	2430	21
4	10136	2430	20
4	10161	2435	19
4	10176	2440	20
4	10194	2440	19
4	10219	2445	18
4	10234	2450	19
4	10248	2450	18
4	10260	2455	17
4	10272	2460	18
4	10279	2460	18
4	10297	2465	18
4	10307	2470	19
4	10320	2470	19
4	10336	2475	18
4	10352	2480	19
4	10364	2480	18
4	10385	2485	17
4	10402	2490	18
4	10412	2490	17
4	10432	2495	16
4	10448	2500	17
4	10456	2500	16
4	10474	2505	16
4	10490	2510	17
4	10503	2510	17
4	10519	2515	17
4	10527	2520	18
4	10542	2520	18
4	10556	2525	17
4	10572	2530	18
4	10584	2530	17
4	10605	2535	16
4	10622	2540	17
4	10632	2540	16
4	10653	2545	15
4	10668	2550	16
4	10677	2550	15
4	10690	2555	14
4	10706	2560	15
4	10714	2560	15
4	10737	2565	15
4	10748	2570	16
4	10767	2570	16
4	10788	2575	16
4	10798	2580	17
4	10817	2580	17
4	10838	2585	16
4	10851	2590	17
4	10867	2590	16
4	10884	2595	15
4	10897	2600	16
4	10911	2600	15
4	10930	2605	15
4	10941	2610	16
4	10955	2610	16
4	10975	2615	16
4	10986	2620	17
4	10997	2620	17
4	11013	2625	17
4	11022	2630	18
4	11034	2630	18
4	11052	2635	18
4	11061	2640	19
4	11075	2640	19
4	11095	2645	19
4	11105	2650	20
4	11121	2650	20
4	11137	2655	20
4	11145	2660	21
4	11160	2660	21
4	11177	2665	21
4	11186	2670	22
4	11198	2670	21
4	11216	2675	20
4	11231	2680	21
4	11243	2680	20
4	11261	2685	20
4	11270	2690	21
4	11281	2690	21
4	11292	2695	21
4	11302	2700	22
4	11310	2700	21
4	11326	2705	20
4	11342	2710	21
4	11350	2710	20
4	11366	2715	20
4	11380	2720	21
4	11395	2720	21
4	11410	2725	21
4	11418	2730	22
4	11433	2730	22
4	11451	2735	22
4	11459	2740	23
4	11471	2740	22
4	11488	2745	21
4	11503	2750	22
4	11514	2750	21
4	11530	2755	20
4	11546	2760	21
4	11555	2760	20
4	11571	2765	19
4	11590	2770	20
4	11598	2770	19
4	11617	2775	18
4	11633	2780	19
4	11640	2780	18
4	11652	2785	17
4	11667	2790	18
4	11673	2790	17
4	11688	2795	16
4	11704	2800	17
4	11710	2800	16
4	11722	2805	15
4	11738	2810	16
4	11744	2810	15
4	11760	2815	14
4	11780	2820	15
4	11786	2820	15
4	11809	2825	15
4	11817	2830	16
4	11829	2830	16
4	11845	2835	16
4	11854	2840	17
4	11868	2840	17
4	11881	2845	17
4	11892	2850	18
4	11906	2850	18
4	11923	2855	18
4	11934	2860	19
4	11949	2860	19
4	11962	2865	19
4	11972	2870	20
4	11985	2870	20
4	12000	2875	20
4	12010	2880	21
4	12023	2880	21
4	12044	2885	21
4	12055	2890	22
4	12071	2890	21
4	12092	2895	20
4	12104	2900	21
4	12118	2900	20
4	12137	2905	19
4	12150	2910	20
4	12164	2910	19
4	12183	2915	18
4	12196	2920	19
4	12210	2920	18
4	12230	2925	17
4	12245	2930	18
4	12259	2930	17
4	12280	2935	16
4	12296	2940	17
4	12308	2940	16
4	12324	2945	16
4	12338	2950	17
4	12352	2950	17
4	12369	2955	17
4	12379	2960	18
4	12394	2960	18
4	12411	2965	18
4	12423	2970	19
4	12440	2970	19
4	12455	2975	18
4	12468	2980	19
4	12482	2980	18
4	12501	2985	18
4	12513	2990	19
4	12529	2990	19
4	12546	2995	19
4	12556	3000	20
4	12574	3000	20
4	12592	3005	20
4	12600	3010	21
4	12612	3010	20
4	12629	3015	19
4	12643	3020	20
4	12653	3020	20
4	12670	3025	20
4	12676	3030	21
4	12687	3030	21
4	12698	3035	21
4	12707	3040	22
4	12720	3040	22
4	12734	3045	22
4	12745	3050	23
4	12758	3050	23
4	12773	3055	23
4	12782	3060	24
4	12794	3060	24
4	12804	3065	24
4	12813	3070	25
4	12826	3070	25
4	12839	3075	25
4	12849	3080	26
4	12865	3080	26
4	12881	3085	25
4	12894	3090	26
4	12908	3090	25
4	12928	3095	24
4	12943	3100	25
4	12957	3100	24
4	12978	3105	23
4	12993	3110	24
4	13005	3110	23
4	13022	3115	22
4	13036	3120	23
4	13048	3120	22
4	13067	3125	21
4	13082	3130	22
4	13093	3130	21
4	13107	3135	20
4	13119	3140	21
4	13126	3140	21
4	13143	3145	21
4	13151	3150	22
4	13164	3150	22
4	13177	3155	22
4	13188	3160	23
4	13199	3160	23
4	13217	3165	23
4	13227	3170	24
4	13242	3170	24
4	13258	3175	24
4	13267	3180	25
4	13280	3180	25
4	13296	3185	25
4	13305	3190	26
4	13319	3190	26
4	13331	3195	26
4	13341	3200	27
4	13357	3200	27
4	13374	3205	26
4	13390	3210	27
4	13402	3210	27
4	13418	3215	27
4	13428	3220	28
4	13441	3220	28
4	13456	3225	28
4	13468	3230	29
4	13479	3230	29
4	13500	3235	29
4	13510	3240	30
4	13528	3240	30
4	13547	3245	30
4	13557	3250	31
4	13576	3250	31
4	13597	3255	31
4	13607	3260	32
4	13623	3260	32
4	13636	3265	32
4	13646	3270	33
4	13658	3270	32
4	13676	3275	32
4	13688	3280	33
4	13703	3280	33
4	13723	3285	33
4	13734	3290	34
4	13748	3290	33
4	13763	3295	32
4	13776	3300	33
4	13788	3300	32
4	13807	3305	31
4	13823	3310	32
4	13832	3310	31
4	13846	3315	30
4	13861	3320	31
4	13869	3320	30
4	13884	3325	29
4	13902	3330	30
4	13910	3330	29
4	13928	3335	28
4	13947	3340	29
4	13955	3340	28
4	13974	3345	27
4	13994	3350	28
4	14001	3350	27
4	14017	3355	26
4	14036	3360	27
4	14042	3360	26
4	14062	3365	25
4	14083	3370	26
4	14089	3370	25
4	14108	3375	25
4	14121	3380	26
4	14131	3380	26
4	14145	3385	26
4	14155	3390	27
4	14168	3390	27
4	14183	3395	27
4	14195	3400	28
4	14206	3400	27
4	14222	3405	26
4	14239	3410	27
4	14249	3410	27
4	14268	3415	27
4	14277	3420	28
4	14290	3420	28
4	14308	3425	28
4	14318	3430	29
4	14333	3430	29
4	14351	3435	29
4	14360	3440	30
4	14372	3440	29
4	14390	3445	28
4	14405	3450	29
4	14417	3450	28
4	14436	3455	27
4	14453	3460	28
4	14465	3460	27
4	14488	3465	26
4	14507	3470	27
4	14519	3470	26
4	14538	3475	25
4	14553	3480	26
4	14565	3480	25
4	14583	3485	24
4	14594	3490	25
4	14602	3490	24
4	14616	3495	23
4	14631	3500	24
4	14639	3500	23
4	14653	3505	23
4	14668	3510	24
4	14684	3510	24
4	14701	3515	24
4	14710	3520	25
4	14725	3520	25
4	14742	3525	24
4	14755	3530	25
4	14769	3530	24
4	14788	3535	23
4	14802	3540	24
4	14815	3540	24
4	14837	3545	24
4	14847	3550	25
4	14861	3550	25
4	14872	3555	24
4	14887	3560	25
4	14897	3560	24
4	14914	3565	23
4	14932	3570	24
4	14940	3570	24
4	14962	3575	24
4	14970	3580	25
4	14985	3580	25
4	15000	3585	25
4	15007	3590	26
4	15020	3590	26
4	15036	3595	26
4	15045	3600	27
4	15057	3600	26
5	6	5	0
5	14	10	1
5	23	10	1
5	42	15	1
5	51	20	2
5	60	20	2
5	76	25	2
5	85	30	3
5	90	30	2
5	107	35	1
5	128	40	2
5	133	40	1
5	153	45	1
5	173	50	2
5	184	50	2
5	207	55	2
5	214	60	3
5	224	60	3
5	244	65	2
5	257	70	3
5	264	70	2
5	283	75	2
5	297	80	3
5	306	80	3
5	324	85	3
5	333	90	4
5	346	90	4
5	364	95	3
5	376	100	4
5	385	100	3
5	402	105	2
5	418	110	3
5	423	110	2
5	441	115	1
5	459	120	2
5	464	120	1
5	480	125	0
5	499	130	1
5	511	130	1
5	529	135	1
5	541	140	2
5	554	140	2
5	574	145	2
5	580	150	3
5	591	150	3
5	614	155	3
5	623	160	4
5	633	160	4
5	658	165	4
5	665	170	5
5	675	170	5
5	693	175	5
5	699	180	6
5	708	180	6
5	725	185	6
5	732	190	7
5	743	190	7
5	763	195	7
5	773	200	8
5	785	200	8
5	800	205	7
5	814	210	8
5	823	210	7
5	841	215	7
5	855	220	8
5	868	220	8
5	885	225	8
5	895	230	9
5	910	230	9
5	926	235	8
5	937	240	9
5	944	240	8
5	960	245	7
5	978	250	8
5	985	250	7
5	1003	255	6
5	1023	260	7
5	1030	260	6
5	1052	265	5
5	1070	270	6
5	1075	270	5
5	1092	275	4
5	1112	280	5
5	1117	280	4
5	1136	285	4
5	1156	290	5
5	1170	290	5
5	1191	295	5
5	1202	300	6
5	1219	300	6
5	1242	305	6
5	1252	310	7
5	1265	310	6
5	1286	315	6
5	1298	320	7
5	1312	320	7
5	1329	325	7
5	1338	330	8
5	1352	330	8
5	1370	335	8
5	1380	340	9
5	1392	340	9
5	1407	345	9
5	1416	350	10
5	1426	350	10
5	1439	355	10
5	1448	360	11
5	1458	360	11
5	1479	365	11
5	1489	370	12
5	1502	370	12
5	1512	375	11
5	1529	380	12
5	1538	380	11
5	1560	385	10
5	1583	390	11
5	1592	390	10
5	1613	395	9
5	1632	400	10
5	1639	400	10
5	1663	405	10
5	1672	410	11
5	1683	410	11
5	1694	415	11
5	1702	420	12
5	1713	420	12
5	1726	425	12
5	1738	430	13
5	1746	430	12
5	1761	435	11
5	1779	440	12
5	1786	440	11
5	1803	445	10
5	1820	450	11
5	1825	450	10
5	1843	455	9
5	1862	460	10
5	1867	460	9
5	1883	465	8
[...]
39	2595	630	1
39	2614	635	1
39	2641	640	1
39	2658	645	1
39	2683	650	1
39	3026	730	1
39	3041	735	1
39	3066	740	1
39	3207	775	1
39	3234	780	1
39	3255	785	1
39	3281	790	1
39	3413	820	1
39	3429	825	1
39	3452	830	1
39	3471	835	1
39	3500	840	1
39	3522	845	1
39	3549	850	1
39	3569	855	1
39	3594	860	1
39	3612	865	1
39	3779	900	1
39	3797	905	1
39	3820	910	1
39	3839	915	1
39	3865	920	1
39	4010	950	1
39	4029	955	1
39	4057	960	1
39	4078	965	1
39	4107	970	1
39	4192	995	1
39	4214	1000	1
39	4232	1005	1
39	4260	1010	1
39	4283	1015	1
39	4308	1020	1
39	4457	1055	1
39	4483	1060	1
39	4570	1085	1
39	4591	1090	1
39	4712	1125	1
39	4733	1130	1
39	4751	1135	1
39	4839	1155	1
39	5074	1210	1
39	5202	1240	1
39	5278	1260	1
39	5394	1290	1
39	5407	1295	1
39	5426	1300	1
39	5440	1305	1
39	5463	1310	1
39	5482	1315	1
39	5513	1320	1
39	5529	1325	1
39	5659	1355	1
39	5769	1380	1
39	5790	1385	1
39	5816	1390	1
39	5837	1395	1
39	5941	1420	1
39	5956	1425	1
39	5981	1430	1
39	5997	1435	1
39	6020	1440	1
39	6039	1445	1
39	6063	1450	1
39	6081	1455	1
39	6192	1485	1
39	6215	1490	1
39	6231	1495	1
39	6252	1500	1
39	6267	1505	1
39	6291	1510	1
39	6310	1515	1
39	6336	1520	1
39	6351	1525	1
39	6435	1545	1
39	6463	1550	1
39	6566	1575	1
39	6591	1580	1
39	6605	1585	1
39	6626	1590	1
39	6643	1595	1
39	6667	1600	1
39	6684	1605	1
39	6711	1610	1
39	6732	1615	1
39	6754	1620	1
39	6772	1625	1
39	6801	1630	1
39	6823	1635	1
39	6850	1640	1
39	6938	1660	1
39	6955	1665	1
39	7068	1690	1
39	7083	1695	1
39	7103	1700	1
39	7117	1705	1
39	7140	1710	1
39	7227	1730	1
39	7244	1735	1
39	7268	1740	1
39	7289	1745	1
39	7379	1765	1
39	7400	1770	1
39	7417	1775	1
39	7543	1805	1
39	7572	1810	1
39	7591	1815	1
39	7618	1820	1
39	7639	1825	1
39	7669	1830	1
39	7848	1875	1
39	7870	1880	1
39	7887	1885	1
39	7916	1890	1
39	7936	1895	1
39	7964	1900	1
39	7984	1905	1
39	8122	1940	1
39	8139	1945	1
39	8167	1950	1
39	8188	1955	1
39	8331	1990	1
39	8345	1995	1
39	8368	2000	1
39	8386	2005	1
39	8412	2010	1
39	8492	2030	1
39	8509	2035	1
39	8604	2060	1
39	8620	2065	1
39	8647	2070	1
39	8669	2075	1
39	8699	2080	1
39	8838	2115	1
39	8865	2120	1
39	8886	2125	1
39	8909	2130	1
39	8921	2135	1
39	8944	2140	1
39	8960	2145	1
39	8984	2150	1
39	9113	2180	1
39	9124	2185	1
39	9147	2190	1
39	9164	2195	1
39	9189	2200	1
39	9318	2235	1
39	9340	2240	1
39	9357	2245	1
39	9384	2250	1
39	9405	2255	1
39	9432	2260	1
39	9452	2265	1
39	9559	2290	1
39	9692	2325	1
39	9775	2345	1
39	9801	2350	1
39	9915	2380	1
39	9932	2385	1
39	9960	2390	1
39	9977	2395	1
39	10137	2430	1
39	10162	2435	1
39	10195	2440	1
39	10220	2445	1
39	10249	2450	1
39	10261	2455	1
39	10337	2475	1
39	10365	2480	1
39	10386	2485	1
39	10413	2490	1
39	10433	2495	1
39	10457	2500	1
39	10557	2525	1
39	10585	2530	1
39	10606	2535	1
39	10633	2540	1
39	10654	2545	1
39	10678	2550	1
39	10691	2555	1
39	10839	2585	1
39	10868	2590	1
39	10885	2595	1
39	10912	2600	1
39	11199	2670	1
39	11217	2675	1
39	11244	2680	1
39	11311	2700	1
39	11327	2705	1
39	11351	2710	1
39	11472	2740	1
39	11489	2745	1
39	11515	2750	1
39	11531	2755	1
39	11556	2760	1
39	11572	2765	1
39	11599	2770	1
39	11618	2775	1
39	11641	2780	1
39	11653	2785	1
39	11674	2790	1
39	11689	2795	1
39	11711	2800	1
39	11723	2805	1
39	11745	2810	1
39	11761	2815	1
39	12072	2890	1
39	12093	2895	1
39	12119	2900	1
39	12138	2905	1
39	12165	2910	1
39	12184	2915	1
39	12211	2920	1
39	12231	2925	1
39	12260	2930	1
39	12281	2935	1
39	12309	2940	1
39	12456	2975	1
39	12483	2980	1
39	12613	3010	1
39	12630	3015	1
39	12882	3085	1
39	12909	3090	1
39	12929	3095	1
39	12958	3100	1
39	12979	3105	1
39	13006	3110	1
39	13023	3115	1
39	13049	3120	1
39	13068	3125	1
39	13094	3130	1
39	13108	3135	1
39	13375	3205	1
39	13659	3270	1
39	13749	3290	1
39	13764	3295	1
39	13789	3300	1
39	13808	3305	1
39	13833	3310	1
39	13847	3315	1
39	13870	3320	1
39	13885	3325	1
39	13911	3330	1
39	13929	3335	1
39	13956	3340	1
39	13975	3345	1
39	14002	3350	1
39	14018	3355	1
39	14043	3360	1
39	14063	3365	1
39	14090	3370	1
39	14207	3400	1
39	14223	3405	1
39	14373	3440	1
39	14391	3445	1
39	14418	3450	1
39	14437	3455	1
39	14466	3460	1
39	14489	3465	1
39	14520	3470	1
39	14539	3475	1
39	14566	3480	1
39	14584	3485	1
39	14603	3490	1
39	14617	3495	1
39	14640	3500	1
39	14743	3525	1
39	14770	3530	1
39	14789	3535	1
39	14873	3555	1
39	14898	3560	1
39	14915	3565	1
39	15058	3600	1
40	341	90	1
40	359	95	1
40	384	100	1
40	533	135	1
40	549	140	1
40	565	145	1
40	586	150	1
40	602	155	1
40	629	160	1
40	646	165	1
40	738	190	1
40	753	195	1
40	779	200	1
40	795	205	1
40	820	210	1
40	839	215	1
40	861	220	1
40	876	225	1
40	901	230	1
40	990	250	1
40	1008	255	1
40	1035	260	1
40	1147	285	1
40	1166	290	1
40	1184	295	1
40	1212	300	1
40	1233	305	1
40	1260	310	1
40	1282	315	1
40	1306	320	1
40	1322	325	1
40	1346	330	1
40	1478	365	1
40	1569	385	1
40	1600	390	1
40	1620	395	1
40	1644	400	1
40	1658	405	1
40	1679	410	1
40	1689	415	1
40	1708	420	1
40	1944	475	1
40	1974	480	1
40	1994	485	1
40	2014	490	1
40	2030	495	1
40	2053	500	1
40	2073	505	1
40	2098	510	1
40	2112	515	1
40	2137	520	1
40	2152	525	1
40	2205	535	1
40	2243	545	1
40	2281	555	1
40	2332	565	1
40	2483	600	1
40	2504	605	1
40	2624	635	1
40	2769	670	1
40	2785	675	1
40	2808	680	1
40	2902	705	1
40	2931	710	1
40	2954	715	1
40	2980	720	1
40	2995	725	1
40	3021	730	1
40	3037	735	1
40	3062	740	1
40	3209	775	1
40	3236	780	1
40	3257	785	1
40	3283	790	1
40	3303	795	1
40	3328	800	1
40	3346	805	1
40	3373	810	1
40	3456	830	1
40	3475	835	1
40	3504	840	1
40	3526	845	1
40	3553	850	1
40	3573	855	1
40	3598	860	1
40	3616	865	1
40	3752	895	1
40	3777	900	1
40	3795	905	1
40	3818	910	1
40	3837	915	1
40	3897	925	1
40	3943	935	1
40	3989	945	1
40	4035	955	1
40	4086	965	1
40	4137	975	1
40	4735	1130	1
40	4753	1135	1
40	4929	1175	1
40	4955	1180	1
40	4970	1185	1
40	4988	1190	1
40	5003	1195	1
40	5026	1200	1
40	5115	1220	1
40	5132	1225	1
40	5157	1230	1
40	5174	1235	1
40	5200	1240	1
40	5217	1245	1
40	5241	1250	1
40	5256	1255	1
40	5276	1260	1
40	5292	1265	1
40	5311	1270	1
40	5322	1275	1
40	5343	1280	1
40	5359	1285	1
40	5386	1290	1
40	5533	1325	1
40	5556	1330	1
40	5568	1335	1
40	5592	1340	1
40	5611	1345	1
40	5637	1350	1
40	5653	1355	1
40	5678	1360	1
40	5693	1365	1
40	5715	1370	1
40	5731	1375	1
40	5759	1380	1
40	5869	1400	1
40	6028	1440	1
40	6256	1500	1
40	6271	1505	1
40	6295	1510	1
40	6391	1535	1
40	6414	1540	1
40	6431	1545	1
40	6459	1550	1
40	6480	1555	1
40	6628	1590	1
40	6782	1625	1
40	6809	1630	1
40	6959	1665	1
40	6982	1670	1
40	6996	1675	1
40	7022	1680	1
40	7229	1730	1
40	7246	1735	1
40	7270	1740	1
40	7291	1745	1
40	7320	1750	1
40	7467	1785	1
40	7734	1845	1
40	7756	1850	1
40	7829	1870	1
40	7844	1875	1
40	7868	1880	1
40	7885	1885	1
40	7914	1890	1
40	7934	1895	1
40	7962	1900	1
40	7982	1905	1
40	8004	1910	1
40	8015	1915	1
40	8034	1920	1
40	8046	1925	1
40	8068	1930	1
40	8085	1935	1
40	8114	1940	1
40	8133	1945	1
40	8161	1950	1
40	8182	1955	1
40	8211	1960	1
40	8229	1965	1
40	8256	1970	1
40	9091	2175	1
40	9111	2180	1
40	9122	2185	1
40	9213	2205	1
40	9231	2210	1
40	9390	2250	1
40	9501	2275	1
40	9520	2280	1
40	9535	2285	1
40	9555	2290	1
40	9571	2295	1
40	9594	2300	1
40	9607	2305	1
40	9733	2335	1
40	10054	2415	1
40	10080	2420	1
40	10100	2425	1
40	10131	2430	1
40	10156	2435	1
40	10189	2440	1
40	10214	2445	1
40	10339	2475	1
40	10367	2480	1
40	10388	2485	1
40	10415	2490	1
40	10515	2515	1
40	10538	2520	1
40	10555	2525	1
40	10583	2530	1
40	10604	2535	1
40	10631	2540	1
40	10652	2545	1
40	10676	2550	1
40	10689	2555	1
40	10713	2560	1
40	10728	2565	1
40	10755	2570	1
40	10776	2575	1
40	10805	2580	1
40	10827	2585	1
40	10858	2590	1
40	10877	2595	1
40	10904	2600	1
40	10999	2620	1
40	11009	2625	1
40	11031	2630	1
40	11046	2635	1
40	11070	2640	1
40	11087	2645	1
40	11113	2650	1
40	11128	2655	1
40	11152	2660	1
40	11168	2665	1
40	11193	2670	1
40	11211	2675	1
40	11238	2680	1
40	11258	2685	1
40	11277	2690	1
40	11288	2695	1
40	11309	2700	1
40	11325	2705	1
40	11349	2710	1
40	11365	2715	1
40	11387	2720	1
40	11402	2725	1
40	11425	2730	1
40	11578	2765	1
40	11605	2770	1
40	11725	2805	1
40	11747	2810	1
40	11763	2815	1
40	11788	2820	1
40	11803	2825	1
40	11824	2830	1
40	11838	2835	1
40	11861	2840	1
40	11877	2845	1
40	11899	2850	1
40	11915	2855	1
40	12042	2885	1
40	12070	2890	1
40	12091	2895	1
40	12117	2900	1
40	12136	2905	1
40	12163	2910	1
40	12182	2915	1
40	12209	2920	1
40	12229	2925	1
40	12258	2930	1
40	12279	2935	1
40	12438	2970	1
40	12454	2975	1
40	12481	2980	1
40	12500	2985	1
40	12524	2990	1
40	12541	2995	1
40	12567	3000	1
40	12586	3005	1
40	12609	3010	1
40	12626	3015	1
40	12651	3020	1
40	12716	3040	1
40	12822	3070	1
40	12835	3075	1
40	12858	3080	1
40	12876	3085	1
40	12903	3090	1
40	12923	3095	1
40	12952	3100	1
40	12974	3105	1
40	13002	3110	1
40	13019	3115	1
40	13045	3120	1
40	13064	3125	1
40	13090	3130	1
40	13201	3160	1
40	13214	3165	1
40	13238	3170	1
40	13256	3175	1
40	13276	3180	1
40	13290	3185	1
40	13313	3190	1
40	13325	3195	1
40	13348	3200	1
40	13367	3205	1
40	13525	3240	1
40	13544	3245	1
40	13572	3250	1
40	13593	3255	1
40	13619	3260	1
40	13631	3265	1
40	13655	3270	1
40	13673	3275	1
40	13697	3280	1
40	13715	3285	1
40	13813	3305	1
40	14142	3385	1
40	14164	3390	1
40	14179	3395	1
40	14203	3400	1
40	14219	3405	1
40	14246	3410	1
40	14393	3445	1
40	14420	3450	1
40	14439	3455	1
40	14468	3460	1
40	14491	3465	1
40	14681	3510	1
40	14697	3515	1
40	14719	3520	1
40	14737	3525	1
40	14764	3530	1
40	14783	3535	1
40	14875	3555	1
40	14900	3560	1
40	14917	3565	1
40	15033	3595	1
40	15054	3600	1
41	341	90	80
41	359	95	75
41	384	100	70
41	533	135	95
41	549	140	90
41	565	145	85
41	586	150	80
41	602	155	75
41	629	160	70
41	646	165	65
41	738	190	80
41	753	195	75
41	779	200	70
41	795	205	65
41	820	210	60
41	839	215	55
41	861	220	50
41	876	225	45
41	901	230	40
41	990	250	50
41	1008	255	45
41	1035	260	40
41	1147	285	55
41	1166	290	50
41	1184	295	45
41	1212	300	40
41	1233	305	35
41	1260	310	30
41	1282	315	25
41	1306	320	20
41	1322	325	15
41	1346	330	10
41	1478	365	35
41	1569	385	45
41	1600	390	40
41	1620	395	35
41	1644	400	30
41	1658	405	25
41	1679	410	20
41	1689	415	15
41	1708	420	10
41	1944	475	55
41	1974	480	50
41	1994	485	45
41	2014	490	40
41	2030	495	35
41	2053	500	30
41	2073	505	25
41	2098	510	20
41	2112	515	15
41	2137	520	10
41	2152	525	5
41	2205	535	5
41	2243	545	5
41	2281	555	5
41	2332	565	5
41	2483	600	30
41	2504	605	25
41	2624	635	45
41	2769	670	70
41	2785	675	65
41	2808	680	60
41	2902	705	75
41	2931	710	70
41	2954	715	65
41	2980	720	60
41	2995	725	55
41	3021	730	50
41	3037	735	45
41	3062	740	40
41	3209	775	65
41	3236	780	60
41	3257	785	55
41	3283	790	50
41	3303	795	45
41	3328	800	40
41	3346	805	35
41	3373	810	30
41	3456	830	40
41	3475	835	35
41	3504	840	30
41	3526	845	25
41	3553	850	20
41	3573	855	15
41	3598	860	10
41	3616	865	5
41	3752	895	25
41	3777	900	20
41	3795	905	15
41	3818	910	10
41	3837	915	5
41	3897	925	5
41	3943	935	5
41	3989	945	5
41	4035	955	5
41	4086	965	5
41	4137	975	5
41	4735	1130	150
41	4753	1135	145
41	4929	1175	175
41	4955	1180	170
41	4970	1185	165
41	4988	1190	160
41	5003	1195	155
41	5026	1200	150
41	5115	1220	160
41	5132	1225	155
41	5157	1230	150
41	5174	1235	145
41	5200	1240	140
41	5217	1245	135
41	5241	1250	130
41	5256	1255	125
41	5276	1260	120
41	5292	1265	115
41	5311	1270	110
41	5322	1275	105
41	5343	1280	100
41	5359	1285	95
41	5386	1290	90
41	5533	1325	115
41	5556	1330	110
41	5568	1335	105
41	5592	1340	100
41	5611	1345	95
41	5637	1350	90
41	5653	1355	85
41	5678	1360	80
41	5693	1365	75
41	5715	1370	70
41	5731	1375	65
41	5759	1380	60
41	5869	1400	70
41	6028	1440	100
41	6256	1500	150
41	6271	1505	145
41	6295	1510	140
41	6391	1535	155
41	6414	1540	150
41	6431	1545	145
41	6459	1550	140
41	6480	1555	135
41	6628	1590	160
41	6782	1625	185
41	6809	1630	180
41	6959	1665	205
41	6982	1670	200
41	6996	1675	195
41	7022	1680	190
41	7229	1730	230
41	7246	1735	225
41	7270	1740	220
41	7291	1745	215
41	7320	1750	210
41	7467	1785	235
41	7734	1845	285
41	7756	1850	280
41	7829	1870	290
41	7844	1875	285
41	7868	1880	280
41	7885	1885	275
41	7914	1890	270
41	7934	1895	265
41	7962	1900	260
41	7982	1905	255
41	8004	1910	250
41	8015	1915	245
41	8034	1920	240
41	8046	1925	235
41	8068	1930	230
41	8085	1935	225
41	8114	1940	220
41	8133	1945	215
41	8161	1950	210
41	8182	1955	205
41	8211	1960	200
41	8229	1965	195
41	8256	1970	190
41	9091	2175	385
41	9111	2180	380
41	9122	2185	375
41	9213	2205	385
41	9231	2210	380
41	9390	2250	410
41	9501	2275	425
41	9520	2280	420
41	9535	2285	415
41	9555	2290	410
41	9571	2295	405
41	9594	2300	400
41	9607	2305	395
41	9733	2335	415
41	10054	2415	485
41	10080	2420	480
41	10100	2425	475
41	10131	2430	470
41	10156	2435	465
41	10189	2440	460
41	10214	2445	455
41	10339	2475	475
41	10367	2480	470
41	10388	2485	465
41	10415	2490	460
41	10515	2515	475
41	10538	2520	470
41	10555	2525	465
41	10583	2530	460
41	10604	2535	455
41	10631	2540	450
41	10652	2545	445
41	10676	2550	440
41	10689	2555	435
41	10713	2560	430
41	10728	2565	425
41	10755	2570	420
41	10776	2575	415
41	10805	2580	410
41	10827	2585	405
41	10858	2590	400
41	10877	2595	395
41	10904	2600	390
41	10999	2620	400
41	11009	2625	395
41	11031	2630	390
41	11046	2635	385
41	11070	2640	380
41	11087	2645	375
41	11113	2650	370
41	11128	2655	365
41	11152	2660	360
41	11168	2665	355
41	11193	2670	350
41	11211	2675	345
41	11238	2680	340
41	11258	2685	335
41	11277	2690	330
41	11288	2695	325
41	11309	2700	320
41	11325	2705	315
41	11349	2710	310
41	11365	2715	305
41	11387	2720	300
41	11402	2725	295
41	11425	2730	290
41	11578	2765	315
41	11605	2770	310
41	11725	2805	335
41	11747	2810	330
41	11763	2815	325
41	11788	2820	320
41	11803	2825	315
41	11824	2830	310
41	11838	2835	305
41	11861	2840	300
41	11877	2845	295
41	11899	2850	290
41	11915	2855	285
41	12042	2885	305
41	12070	2890	300
41	12091	2895	295
41	12117	2900	290
41	12136	2905	285
41	12163	2910	280
41	12182	2915	275
41	12209	2920	270
41	12229	2925	265
41	12258	2930	260
41	12279	2935	255
41	12438	2970	280
41	12454	2975	275
41	12481	2980	270
41	12500	2985	265
41	12524	2990	260
41	12541	2995	255
41	12567	3000	250
41	12586	3005	245
41	12609	3010	240
41	12626	3015	235
41	12651	3020	230
41	12716	3040	240
41	12822	3070	260
41	12835	3075	255
41	12858	3080	250
41	12876	3085	245
41	12903	3090	240
41	12923	3095	235
41	12952	3100	230
41	12974	3105	225
41	13002	3110	220
41	13019	3115	215
41	13045	3120	210
41	13064	3125	205
41	13090	3130	200
41	13201	3160	220
41	13214	3165	215
41	13238	3170	210
41	13256	3175	205
41	13276	3180	200
41	13290	3185	195
41	13313	3190	190
41	13325	3195	185
41	13348	3200	180
41	13367	3205	175
41	13525	3240	200
41	13544	3245	195
41	13572	3250	190
41	13593	3255	185
41	13619	3260	180
41	13631	3265	175
41	13655	3270	170
41	13673	3275	165
41	13697	3280	160
41	13715	3285	155
41	13813	3305	165
41	14142	3385	235
41	14164	3390	230
41	14179	3395	225
41	14203	3400	220
41	14219	3405	215
41	14246	3410	210
41	14393	3445	235
41	14420	3450	230
41	14439	3455	225
41	14468	3460	220
41	14491	3465	215
41	14681	3510	250
41	14697	3515	245
41	14719	3520	240
41	14737	3525	235
41	14764	3530	230
41	14783	3535	225
41	14875	3555	235
41	14900	3560	230
41	14917	3565	225
41	15033	3595	245
41	15054	3600	240
42	341	90	1
42	359	95	1
42	384	100	1
42	533	135	1
42	549	140	1
42	565	145	1
42	586	150	1
42	602	155	1
42	629	160	1
42	646	165	1
42	738	190	1
42	753	195	1
42	779	200	1
42	795	205	1
42	820	210	1
42	839	215	1
42	861	220	1
42	876	225	1
42	901	230	1
42	990	250	1
42	1008	255	1
42	1035	260	1
42	1147	285	1
42	1166	290	1
42	1184	295	1
42	1212	300	1
42	1233	305	1
42	1260	310	1
42	1282	315	1
42	1306	320	1
42	1322	325	0
42	1346	330	0
42	1478	365	1
42	1569	385	1
42	1600	390	1
42	1620	395	1
42	1644	400	1
42	1658	405	1
42	1679	410	1
42	1689	415	0
42	1708	420	0
42	1944	475	1
42	1974	480	1
42	1994	485	1
42	2014	490	1
42	2030	495	1
42	2053	500	1
42	2073	505	1
42	2098	510	1
42	2112	515	0
42	2137	520	0
42	2152	525	0
42	2205	535	0
42	2243	545	0
42	2281	555	0
42	2332	565	0
42	2483	600	1
42	2504	605	1
42	2624	635	1
42	2769	670	1
42	2785	675	1
42	2808	680	1
42	2902	705	1
42	2931	710	1
42	2954	715	1
42	2980	720	1
42	2995	725	1
42	3021	730	1
42	3037	735	1
42	3062	740	1
42	3209	775	1
42	3236	780	1
42	3257	785	1
42	3283	790	1
42	3303	795	1
42	3328	800	1
42	3346	805	1
42	3373	810	1
42	3456	830	1
42	3475	835	1
42	3504	840	1
42	3526	845	1
42	3553	850	1
42	3573	855	0
42	3598	860	0
42	3616	865	0
42	3752	895	1
42	3777	900	1
42	3795	905	0
42	3818	910	0
42	3837	915	0
42	3897	925	0
42	3943	935	0
42	3989	945	0
42	4035	955	0
42	4086	965	0
42	4137	975	0
42	4735	1130	1
42	4753	1135	1
42	4929	1175	1
42	4955	1180	1
42	4970	1185	1
42	4988	1190	1
42	5003	1195	1
42	5026	1200	1
42	5115	1220	1
42	5132	1225	1
42	5157	1230	1
42	5174	1235	1
42	5200	1240	1
42	5217	1245	1
42	5241	1250	1
42	5256	1255	1
42	5276	1260	1
42	5292	1265	1
42	5311	1270	1
42	5322	1275	1
42	5343	1280	1
42	5359	1285	1
42	5386	1290	1
42	5533	1325	1
42	5556	1330	1
42	5568	1335	1
42	5592	1340	1
42	5611	1345	1
42	5637	1350	1
42	5653	1355	1
42	5678	1360	1
42	5693	1365	1
42	5715	1370	1
42	5731	1375	1
42	5759	1380	1
42	5869	1400	1
42	6028	1440	1
42	6256	1500	1
42	6271	1505	1
42	6295	1510	1
42	6391	1535	1
42	6414	1540	1
42	6431	1545	1
42	6459	1550	1
42	6480	1555	1
42	6628	1590	1
42	6782	1625	1
42	6809	1630	1
42	6959	1665	1
42	6982	1670	1
42	6996	1675	1
42	7022	1680	1
42	7229	1730	1
42	7246	1735	1
42	7270	1740	1
42	7291	1745	1
42	7320	1750	1
42	7467	1785	1
42	7734	1845	1
42	7756	1850	1
42	7829	1870	1
42	7844	1875	1
42	7868	1880	1
42	7885	1885	1
42	7914	1890	1
42	7934	1895	1
42	7962	1900	1
42	7982	1905	1
42	8004	1910	1
42	8015	1915	1
42	8034	1920	1
42	8046	1925	1
42	8068	1930	1
42	8085	1935	1
42	8114	1940	1
42	8133	1945	1
42	8161	1950	1
42	8182	1955	1
42	8211	1960	1
42	8229	1965	1
42	8256	1970	1
42	9091	2175	1
42	9111	2180	1
42	9122	2185	1
42	9213	2205	1
42	9231	2210	1
42	9390	2250	1
42	9501	2275	1
42	9520	2280	1
42	9535	2285	1
42	9555	2290	1
42	9571	2295	1
42	9594	2300	1
42	9607	2305	1
42	9733	2335	1
42	10054	2415	1
42	10080	2420	1
42	10100	2425	1
42	10131	2430	1
42	10156	2435	1
42	10189	2440	1
42	10214	2445	1
42	10339	2475	1
42	10367	2480	1
42	10388	2485	1
42	10415	2490	1
42	10515	2515	1
42	10538	2520	1
42	10555	2525	1
42	10583	2530	1
42	10604	2535	1
42	10631	2540	1
42	10652	2545	1
42	10676	2550	1
42	10689	2555	1
42	10713	2560	1
42	10728	2565	1
42	10755	2570	1
42	10776	2575	1
42	10805	2580	1
42	10827	2585	1
42	10858	2590	1
42	10877	2595	1
42	10904	2600	1
42	10999	2620	1
42	11009	2625	1
42	11031	2630	1
42	11046	2635	1
42	11070	2640	1
42	11087	2645	1
42	11113	2650	1
42	11128	2655	1
42	11152	2660	1
42	11168	2665	1
42	11193	2670	1
42	11211	2675	1
42	11238	2680	1
42	11258	2685	1
42	11277	2690	1
42	11288	2695	1
42	11309	2700	1
42	11325	2705	1
42	11349	2710	1
42	11365	2715	1
42	11387	2720	1
42	11402	2725	1
42	11425	2730	1
42	11578	2765	1
42	11605	2770	1
42	11725	2805	1
42	11747	2810	1
42	11763	2815	1
42	11788	2820	1
42	11803	2825	1
42	11824	2830	1
42	11838	2835	1
42	11861	2840	1
42	11877	2845	1
42	11899	2850	1
42	11915	2855	1
42	12042	2885	1
42	12070	2890	1
42	12091	2895	1
42	12117	2900	1
42	12136	2905	1
42	12163	2910	1
42	12182	2915	1
42	12209	2920	1
42	12229	2925	1
42	12258	2930	1
42	12279	2935	1
42	12438	2970	1
42	12454	2975	1
42	12481	2980	1
42	12500	2985	1
42	12524	2990	1
42	12541	2995	1
42	12567	3000	1
42	12586	3005	1
42	12609	3010	1
42	12626	3015	1
42	12651	3020	1
42	12716	3040	1
42	12822	3070	1
42	12835	3075	1
42	12858	3080	1
42	12876	3085	1
42	12903	3090	1
42	12923	3095	1
42	12952	3100	1
42	12974	3105	1
42	13002	3110	1
42	13019	3115	1
42	13045	3120	1
42	13064	3125	1
42	13090	3130	1
42	13201	3160	1
42	13214	3165	1
42	13238	3170	1
42	13256	3175	1
42	13276	3180	1
42	13290	3185	1
42	13313	3190	1
42	13325	3195	1
42	13348	3200	1
42	13367	3205	1
42	13525	3240	1
42	13544	3245	1
42	13572	3250	1
42	13593	3255	1
42	13619	3260	1
42	13631	3265	1
42	13655	3270	1
42	13673	3275	1
42	13697	3280	1
42	13715	3285	1
42	13813	3305	1
42	14142	3385	1
42	14164	3390	1
42	14179	3395	1
42	14203	3400	1
42	14219	3405	1
42	14246	3410	1
42	14393	3445	1
42	14420	3450	1
42	14439	3455	1
42	14468	3460	1
42	14491	3465	1
42	14681	3510	1
42	14697	3515	1
42	14719	3520	1
42	14737	3525	1
42	14764	3530	1
42	14783	3535	1
42	14875	3555	1
42	14900	3560	1
42	14917	3565	1
42	15033	3595	1
42	15054	3600	1

