version 2
run ContinuityTest2b-0-20210120-11:13:32-5905
attr configname ContinuityTest2b
attr datetime 20210120-11:13:32
attr experiment ContinuityTest2b
attr inifile omnetpp.ini
attr iterationvars ""
attr iterationvarsf ""
attr measurement ""
attr network slottedNetwork
attr processid 5905
attr repetition 0
attr replication #0
attr resultdir results
attr runnumber 0
attr seedset 0
param **.numTransmitters 10
param **.numChannels 18
param **.sendProbability 1
param **.expMean 10s
param **.timeSlotSize 5s
param **.thresh 20s
param **.deterministicInterarrivalTime true
param **.numTransmitters 1
param **.numChannels 1
param **.sendProbability 1
param **.expMean 5s
param **.timeSlotSize 5s
param **.thresh 20s
param **.deterministicInterarrivalTime false

vector 0 slottedNetwork.ch throughput:vector ETV
attr source throughputSignal
vector 1 slottedNetwork.transmitters[0] numPacketOnBuffer:vector ETV
attr source numPacketOnBufferSignal
vector 2 slottedNetwork.transmitters[1] numPacketOnBuffer:vector ETV
attr source numPacketOnBufferSignal
vector 3 slottedNetwork.transmitters[2] numPacketOnBuffer:vector ETV
attr source numPacketOnBufferSignal
vector 4 slottedNetwork.transmitters[3] numPacketOnBuffer:vector ETV
attr source numPacketOnBufferSignal
vector 5 slottedNetwork.transmitters[4] numPacketOnBuffer:vector ETV
attr source numPacketOnBufferSignal
vector 6 slottedNetwork.transmitters[5] numPacketOnBuffer:vector ETV
attr source numPacketOnBufferSignal
vector 7 slottedNetwork.transmitters[6] numPacketOnBuffer:vector ETV
attr source numPacketOnBufferSignal
vector 8 slottedNetwork.transmitters[7] numPacketOnBuffer:vector ETV
attr source numPacketOnBufferSignal
vector 9 slottedNetwork.transmitters[8] numPacketOnBuffer:vector ETV
attr source numPacketOnBufferSignal
vector 10 slottedNetwork.transmitters[9] numPacketOnBuffer:vector ETV
attr source numPacketOnBufferSignal
vector 11 slottedNetwork.transmitters[0] numPacketCreated:vector ETV
attr source numPacketCreatedSignal
vector 12 slottedNetwork.transmitters[1] numPacketCreated:vector ETV
attr source numPacketCreatedSignal
vector 13 slottedNetwork.transmitters[2] numPacketCreated:vector ETV
attr source numPacketCreatedSignal
vector 14 slottedNetwork.transmitters[3] numPacketCreated:vector ETV
attr source numPacketCreatedSignal
vector 15 slottedNetwork.transmitters[4] numPacketCreated:vector ETV
attr source numPacketCreatedSignal
vector 16 slottedNetwork.transmitters[5] numPacketCreated:vector ETV
attr source numPacketCreatedSignal
vector 17 slottedNetwork.transmitters[6] numPacketCreated:vector ETV
attr source numPacketCreatedSignal
vector 18 slottedNetwork.transmitters[7] numPacketCreated:vector ETV
attr source numPacketCreatedSignal
vector 19 slottedNetwork.transmitters[8] numPacketCreated:vector ETV
attr source numPacketCreatedSignal
vector 20 slottedNetwork.transmitters[9] numPacketCreated:vector ETV
attr source numPacketCreatedSignal
vector 21 slottedNetwork.ch collisions:vector ETV
attr source collisionSignal
vector 22 slottedNetwork.receivers[1] numPacketReceived:vector ETV
attr source numPacketReceivedSignal
vector 23 slottedNetwork.receivers[1] responseTime:vector ETV
attr source responseTimeSignal
vector 24 slottedNetwork.receivers[1] threshold:vector ETV
attr source thresholdSignal
vector 25 slottedNetwork.receivers[2] numPacketReceived:vector ETV
attr source numPacketReceivedSignal
vector 26 slottedNetwork.receivers[2] responseTime:vector ETV
attr source responseTimeSignal
vector 27 slottedNetwork.receivers[2] threshold:vector ETV
attr source thresholdSignal
vector 28 slottedNetwork.receivers[7] numPacketReceived:vector ETV
attr source numPacketReceivedSignal
vector 29 slottedNetwork.receivers[7] responseTime:vector ETV
attr source responseTimeSignal
vector 30 slottedNetwork.receivers[7] threshold:vector ETV
attr source thresholdSignal
vector 31 slottedNetwork.receivers[8] numPacketReceived:vector ETV
attr source numPacketReceivedSignal
vector 32 slottedNetwork.receivers[8] responseTime:vector ETV
attr source responseTimeSignal
vector 33 slottedNetwork.receivers[8] threshold:vector ETV
attr source thresholdSignal
vector 34 slottedNetwork.receivers[9] numPacketReceived:vector ETV
attr source numPacketReceivedSignal
vector 35 slottedNetwork.receivers[9] responseTime:vector ETV
attr source responseTimeSignal
vector 36 slottedNetwork.receivers[9] threshold:vector ETV
attr source thresholdSignal
vector 37 slottedNetwork.receivers[4] numPacketReceived:vector ETV
attr source numPacketReceivedSignal
vector 38 slottedNetwork.receivers[4] responseTime:vector ETV
attr source responseTimeSignal
vector 39 slottedNetwork.receivers[4] threshold:vector ETV
attr source thresholdSignal
vector 40 slottedNetwork.receivers[5] numPacketReceived:vector ETV
attr source numPacketReceivedSignal
vector 41 slottedNetwork.receivers[5] responseTime:vector ETV
attr source responseTimeSignal
vector 42 slottedNetwork.receivers[5] threshold:vector ETV
attr source thresholdSignal
vector 43 slottedNetwork.receivers[0] numPacketReceived:vector ETV
attr source numPacketReceivedSignal
vector 44 slottedNetwork.receivers[0] responseTime:vector ETV
attr source responseTimeSignal
vector 45 slottedNetwork.receivers[0] threshold:vector ETV
attr source thresholdSignal
vector 46 slottedNetwork.receivers[3] numPacketReceived:vector ETV
attr source numPacketReceivedSignal
vector 47 slottedNetwork.receivers[3] responseTime:vector ETV
attr source responseTimeSignal
vector 48 slottedNetwork.receivers[3] threshold:vector ETV
attr source thresholdSignal
vector 49 slottedNetwork.receivers[6] numPacketReceived:vector ETV
attr source numPacketReceivedSignal
vector 50 slottedNetwork.receivers[6] responseTime:vector ETV
attr source responseTimeSignal
vector 51 slottedNetwork.receivers[6] threshold:vector ETV
attr source thresholdSignal
0	1	5	0
0	22	10	0
0	43	15	5
0	69	20	0
0	85	25	5
0	113	30	2
0	134	35	6
0	163	40	2
0	184	45	8
0	216	50	3
0	239	55	4
0	266	60	2
0	284	65	3
0	312	70	4
0	334	75	5
0	366	80	6
0	390	85	5
0	421	90	5
0	445	95	4
0	473	100	3
0	492	105	5
0	523	110	5
0	546	115	3
0	573	120	3
0	592	125	3
0	620	130	4
0	641	135	6
0	675	140	5
0	698	145	3
0	724	150	2
0	741	155	4
0	769	160	3
0	790	165	2
0	815	170	2
0	832	175	4
0	861	180	4
0	883	185	7
0	918	190	4
0	940	195	5
0	970	200	4
0	990	205	3
0	1018	210	4
0	1040	215	7
0	1073	220	5
0	1097	225	6
0	1128	230	2
0	1146	235	5
0	1174	240	2
0	1195	245	4
0	1225	250	3
0	1243	255	2
0	1268	260	2
0	1285	265	2
0	1310	270	2
0	1326	275	1
0	1352	280	4
0	1374	285	5
0	1405	290	3
0	1422	295	3
0	1451	300	3
0	1469	305	4
0	1501	310	5
0	1523	315	4
0	1553	320	5
0	1576	325	7
0	1611	330	7
0	1638	335	5
0	1668	340	2
0	1685	345	4
0	1716	350	4
0	1736	355	3
0	1764	360	4
0	1784	365	3
0	1814	370	4
0	1834	375	0
0	1856	380	1
0	1871	385	3
0	1899	390	2
0	1916	395	4
0	1947	400	6
0	1972	405	5
0	2002	410	4
0	2023	415	4
0	2051	420	3
0	2069	425	4
0	2097	430	3
0	2117	435	4
0	2145	440	3
0	2164	445	3
0	2193	450	5
0	2216	455	7
0	2250	460	4
0	2273	465	4
0	2302	470	4
0	2321	475	2
0	2348	480	4
0	2368	485	3
0	2397	490	5
0	2418	495	1
0	2441	500	1
0	2456	505	3
0	2484	510	2
0	2502	515	3
0	2529	520	3
0	2548	525	3
0	2577	530	3
0	2595	535	4
0	2625	540	5
0	2646	545	5
0	2678	550	6
0	2702	555	5
0	2735	560	3
0	2752	565	3
0	2779	570	3
0	2801	575	6
0	2834	580	4
0	2853	585	4
0	2883	590	5
0	2906	595	5
0	2939	600	5
0	2960	605	3
0	2987	610	3
0	3005	615	2
0	3033	620	5
0	3055	625	4
0	3085	630	3
0	3103	635	4
0	3133	640	3
0	3152	645	3
0	3179	650	3
0	3199	655	6
0	3234	660	6
0	3257	665	4
0	3286	670	2
0	3301	675	2
0	3327	680	3
0	3348	685	5
0	3380	690	6
0	3404	695	4
0	3435	700	4
0	3454	705	4
0	3484	710	5
0	3507	715	7
0	3544	720	7
0	3570	725	6
0	3603	730	4
0	3622	735	4
0	3653	740	3
0	3672	745	5
0	3705	750	7
0	3732	755	3
0	3760	760	2
0	3775	765	2
0	3802	770	4
0	3822	775	3
0	3852	780	2
0	3869	785	4
0	3900	790	6
0	3923	795	2
0	3948	800	2
0	3965	805	4
0	3996	810	4
0	4016	815	3
0	4045	820	3
0	4063	825	2
0	4088	830	2
0	4106	835	5
0	4137	840	3
0	4156	845	1
0	4179	850	1
0	4193	855	2
0	4221	860	3
0	4241	865	6
0	4275	870	5
0	4296	875	3
0	4323	880	3
0	4340	885	3
0	4369	890	3
0	4389	895	6
0	4424	900	2
0	4440	905	3
0	4467	910	3
0	4487	915	3
0	4517	920	4
0	4536	925	4
0	4567	930	2
0	4582	935	2
0	4608	940	3
0	4626	945	4
0	4657	950	4
0	4677	955	3
0	4704	960	3
0	4723	965	3
0	4751	970	4
0	4771	975	5
0	4805	980	4
0	4824	985	4
0	4853	990	4
0	4875	995	4
0	4905	1000	5
0	4926	1005	0
0	4949	1010	2
0	4964	1015	2
0	4992	1020	3
0	5012	1025	4
0	5041	1030	4
0	5062	1035	6
0	5095	1040	4
0	5116	1045	1
0	5139	1050	1
0	5153	1055	0
0	5177	1060	3
0	5195	1065	4
0	5227	1070	5
0	5248	1075	3
0	5275	1080	3
0	5292	1085	3
0	5322	1090	3
0	5341	1095	5
0	5372	1100	5
0	5394	1105	4
0	5423	1110	4
0	5443	1115	5
0	5475	1120	6
0	5500	1125	4
0	5529	1130	1
0	5544	1135	3
0	5571	1140	3
0	5588	1145	3
0	5617	1150	1
0	5634	1155	5
0	5665	1160	5
0	5688	1165	7
0	5723	1170	3
0	5740	1175	1
0	5764	1180	2
0	5781	1185	4
0	5811	1190	0
0	5823	1195	1
0	5848	1200	3
0	5868	1205	6
0	5901	1210	6
0	5926	1215	4
0	5955	1220	2
0	5970	1225	2
0	5998	1230	5
0	6019	1235	5
0	6051	1240	6
0	6077	1245	5
0	6109	1250	4
0	6128	1255	4
0	6158	1260	5
0	6181	1265	3
0	6208	1270	3
0	6226	1275	2
0	6255	1280	6
0	6279	1285	7
0	6315	1290	4
0	6334	1295	4
0	6364	1300	5
0	6386	1305	4
0	6415	1310	4
0	6435	1315	3
0	6465	1320	6
0	6488	1325	4
0	6518	1330	5
0	6540	1335	4
0	6569	1340	4
0	6589	1345	5
0	6620	1350	1
0	6636	1355	4
0	6666	1360	3
0	6685	1365	5
0	6716	1370	3
0	6737	1375	5
0	6769	1380	4
0	6789	1385	5
0	6821	1390	4
0	6840	1395	2
0	6867	1400	4
0	6887	1405	5
0	6919	1410	6
0	6944	1415	4
0	6973	1420	4
0	6994	1425	4
0	7023	1430	2
0	7040	1435	4
0	7070	1440	5
0	7093	1445	5
0	7124	1450	5
0	7148	1455	8
0	7186	1460	6
0	7209	1465	4
0	7239	1470	5
0	7260	1475	3
0	7290	1480	2
0	7307	1485	4
0	7338	1490	4
0	7357	1495	4
0	7387	1500	3
0	7405	1505	4
0	7436	1510	6
0	7459	1515	4
0	7488	1520	2
0	7506	1525	3
0	7534	1530	4
0	7554	1535	3
0	7583	1540	3
0	7602	1545	5
0	7636	1550	6
0	7659	1555	1
0	7682	1560	1
0	7697	1565	3
0	7727	1570	2
0	7742	1575	2
0	7769	1580	2
0	7787	1585	5
0	7819	1590	6
0	7842	1595	6
0	7876	1600	5
0	7897	1605	5
0	7930	1610	5
0	7951	1615	5
0	7982	1620	5
0	8005	1625	7
0	8041	1630	4
0	8060	1635	2
0	8086	1640	3
0	8104	1645	4
0	8135	1650	4
0	8155	1655	5
0	8187	1660	6
0	8213	1665	3
0	8240	1670	3
0	8257	1675	3
0	8285	1680	4
0	8304	1685	2
0	8331	1690	2
0	8347	1695	3
0	8375	1700	4
0	8395	1705	5
0	8428	1710	5
0	8451	1715	5
0	8483	1720	4
0	8503	1725	5
0	8535	1730	6
0	8559	1735	4
0	8590	1740	4
0	8610	1745	3
0	8638	1750	4
0	8658	1755	3
0	8687	1760	5
0	8709	1765	4
0	8740	1770	4
0	8760	1775	3
0	8788	1780	4
0	8808	1785	2
0	8834	1790	3
0	8853	1795	3
0	8880	1800	3
0	8900	1805	2
0	8926	1810	3
0	8945	1815	5
0	8978	1820	5
0	8999	1825	5
0	9031	1830	3
0	9049	1835	4
0	9079	1840	5
0	9102	1845	4
0	9132	1850	5
0	9154	1855	4
0	9185	1860	6
0	9209	1865	5
0	9241	1870	3
0	9259	1875	4
0	9288	1880	4
0	9307	1885	4
0	9337	1890	5
0	9361	1895	8
0	9399	1900	7
0	9425	1905	6
0	9458	1910	6
0	9482	1915	7
0	9517	1920	5
0	9539	1925	4
0	9569	1930	5
0	9590	1935	5
0	9622	1940	6
0	9646	1945	5
0	9679	1950	5
0	9700	1955	3
0	9728	1960	4
0	9747	1965	4
0	9778	1970	6
0	9801	1975	6
0	9835	1980	5
0	9857	1985	2
0	9882	1990	2
0	9898	1995	3
0	9926	2000	2
0	9943	2005	2
0	9969	2010	3
0	9988	2015	5
0	10021	2020	3
0	10038	2025	3
0	10066	2030	4
0	10087	2035	4
0	10117	2040	3
0	10136	2045	5
0	10168	2050	4
0	10187	2055	4
0	10219	2060	5
0	10241	2065	4
0	10271	2070	5
0	10293	2075	6
0	10326	2080	6
0	10350	2085	7
0	10386	2090	6
0	10409	2095	4
0	10439	2100	1
0	10454	2105	1
0	10478	2110	2
0	10495	2115	4
0	10528	2120	5
0	10549	2125	5
0	10581	2130	4
0	10600	2135	4
0	10629	2140	4
0	10649	2145	3
0	10679	2150	4
0	10699	2155	3
0	10727	2160	4
0	10748	2165	6
0	10781	2170	4
0	10802	2175	4
0	10831	2180	2
0	10846	2185	2
0	10875	2190	6
0	10901	2195	2
0	10926	2200	2
0	10942	2205	3
0	10969	2210	3
0	10989	2215	3
0	11017	2220	4
0	11037	2225	5
0	11071	2230	6
0	11095	2235	3
0	11123	2240	4
0	11142	2245	4
0	11172	2250	5
0	11195	2255	7
0	11232	2260	7
0	11258	2265	8
0	11295	2270	8
0	11323	2275	7
0	11358	2280	3
0	11375	2285	3
0	11403	2290	2
0	11420	2295	4
0	11449	2300	2
0	11468	2305	6
0	11501	2310	6
0	11525	2315	3
0	11553	2320	4
0	11574	2325	4
0	11604	2330	3
0	11622	2335	4
0	11653	2340	1
0	11666	2345	1
0	11691	2350	3
0	11709	2355	0
0	11732	2360	0
0	11744	2365	1
0	11769	2370	3
0	11786	2375	3
0	11815	2380	5
0	11837	2385	6
0	11872	2390	6
0	11895	2395	4
0	11924	2400	4
0	11944	2405	3
0	11973	2410	2
0	11988	2415	2
0	12015	2420	4
0	12035	2425	5
0	12068	2430	5
0	12091	2435	7
0	12126	2440	5
0	12148	2445	4
0	12177	2450	4
0	12198	2455	4
0	12229	2460	3
0	12247	2465	4
0	12277	2470	3
0	12294	2475	3
0	12322	2480	4
0	12342	2485	3
0	12369	2490	3
0	12389	2495	6
0	12422	2500	6
0	12447	2505	6
0	12481	2510	4
0	12500	2515	4
0	12529	2520	4
0	12549	2525	2
0	12576	2530	4
0	12596	2535	3
0	12624	2540	4
0	12644	2545	3
0	12671	2550	3
0	12689	2555	2
0	12716	2560	2
0	12733	2565	4
0	12764	2570	6
0	12789	2575	3
0	12817	2580	4
0	12836	2585	2
0	12863	2590	4
0	12882	2595	4
0	12914	2600	7
0	12940	2605	4
0	12970	2610	3
0	12988	2615	4
0	13017	2620	4
0	13039	2625	5
0	13072	2630	5
0	13093	2635	3
0	13120	2640	3
0	13137	2645	3
0	13165	2650	4
0	13186	2655	6
0	13220	2660	5
0	13242	2665	4
0	13272	2670	5
0	13293	2675	5
0	13325	2680	6
0	13350	2685	4
0	13379	2690	4
0	13399	2695	3
0	13426	2700	1
0	13439	2705	1
0	13464	2710	1
0	13481	2715	1
0	13504	2720	1
0	13518	2725	2
0	13546	2730	3
0	13564	2735	4
0	13594	2740	5
0	13617	2745	5
0	13648	2750	3
0	13666	2755	4
0	13696	2760	5
0	13718	2765	3
0	13746	2770	4
0	13767	2775	6
0	13801	2780	3
0	13818	2785	3
0	13846	2790	4
0	13869	2795	8
0	13906	2800	2
0	13922	2805	3
0	13949	2810	3
0	13968	2815	5
0	14000	2820	3
0	14019	2825	3
0	14047	2830	2
0	14062	2835	2
0	14088	2840	3
0	14109	2845	5
0	14141	2850	6
0	14164	2855	6
0	14198	2860	5
0	14219	2865	3
0	14246	2870	3
0	14265	2875	5
0	14297	2880	4
0	14316	2885	4
0	14346	2890	5
0	14371	2895	5
0	14402	2900	5
0	14423	2905	3
0	14450	2910	1
0	14463	2915	1
0	14487	2920	2
0	14507	2925	5
0	14538	2930	5
0	14560	2935	4
0	14591	2940	4
0	14610	2945	4
0	14639	2950	2
0	14655	2955	1
0	14680	2960	3
0	14698	2965	4
0	14727	2970	4
0	14748	2975	4
0	14778	2980	5
0	14800	2985	4
0	14830	2990	5
0	14851	2995	5
0	14883	3000	6
0	14907	3005	7
0	14942	3010	5
0	14963	3015	3
0	14991	3020	4
0	15010	3025	4
0	15040	3030	5
0	15062	3035	4
0	15092	3040	5
0	15114	3045	6
0	15148	3050	5
0	15170	3055	4
0	15199	3060	4
0	15219	3065	5
0	15251	3070	6
0	15275	3075	7
0	15310	3080	5
0	15332	3085	4
0	15362	3090	5
0	15383	3095	3
0	15411	3100	4
0	15432	3105	4
0	15462	3110	3
0	15480	3115	1
0	15503	3120	1
0	15517	3125	2
0	15542	3130	0
0	15556	3135	3
0	15585	3140	3
0	15604	3145	5
0	15636	3150	4
0	15655	3155	4
0	15687	3160	5
0	15709	3165	2
0	15734	3170	2
0	15750	3175	1
0	15775	3180	3
0	15794	3185	3
0	15821	3190	3
0	15838	3195	1
0	15862	3200	2
0	15878	3205	3
0	15907	3210	5
0	15929	3215	4
0	15959	3220	3
0	15976	3225	3
0	16005	3230	3
0	16023	3235	4
0	16053	3240	5
0	16075	3245	4
0	16104	3250	4
0	16123	3255	4
0	16154	3260	6
0	16177	3265	6
0	16212	3270	8
0	16239	3275	4
0	16268	3280	4
0	16287	3285	4
0	16318	3290	6
0	16342	3295	5
0	16373	3300	3
0	16391	3305	4
0	16421	3310	3
0	16439	3315	4
0	16469	3320	3
0	16486	3325	3
0	16515	3330	5
0	16538	3335	5
0	16570	3340	6
0	16594	3345	3
0	16622	3350	4
0	16642	3355	5
0	16673	3360	3
0	16690	3365	3
0	16717	3370	3
0	16738	3375	5
0	16770	3380	4
0	16789	3385	4
0	16820	3390	6
0	16844	3395	7
0	16879	3400	5
0	16902	3405	3
0	16929	3410	3
0	16946	3415	3
0	16974	3420	4
0	16994	3425	3
0	17023	3430	3
0	17040	3435	3
0	17067	3440	3
0	17085	3445	2
0	17112	3450	4
0	17134	3455	5
0	17167	3460	5
0	17188	3465	3
0	17215	3470	3
0	17233	3475	4
0	17262	3480	4
0	17285	3485	6
0	17318	3490	2
0	17333	3495	2
0	17359	3500	1
0	17372	3505	1
0	17397	3510	3
0	17416	3515	1
0	17442	3520	4
0	17461	3525	4
0	17491	3530	5
0	17514	3535	5
0	17545	3540	5
0	17568	3545	5
0	17599	3550	5
0	17620	3555	3
0	17649	3560	5
0	17670	3565	5
0	17702	3570	6
0	17726	3575	5
0	17757	3580	3
0	17776	3585	5
0	17807	3590	3
0	17825	3595	4
0	17854	3600	2
1	2	5	0
1	12	10	1
1	23	10	1
1	44	15	1
1	59	20	2
1	70	20	2
1	96	25	2
1	103	30	3
1	118	30	3
1	138	35	2
1	153	40	3
1	166	40	2
1	187	45	1
1	206	50	2
1	217	50	1
1	240	55	1
1	256	60	2
1	271	60	2
1	293	65	2
1	302	70	3
1	321	70	3
1	342	75	2
1	356	80	3
1	373	80	2
1	396	85	2
1	411	90	3
1	432	90	3
1	458	95	3
1	463	100	4
1	480	100	4
1	499	105	3
1	513	110	4
1	528	110	3
1	550	115	3
1	563	120	4
1	580	120	4
1	601	125	4
1	610	130	5
1	625	130	4
1	646	135	3
1	665	140	4
1	679	140	4
1	709	145	4
1	714	150	5
1	729	150	5
1	750	155	5
1	759	160	6
1	776	160	6
1	794	165	5
1	805	170	6
1	816	170	5
1	833	175	4
1	851	180	5
1	862	180	4
1	884	185	3
1	908	190	4
1	919	190	4
1	953	195	4
1	960	200	5
1	979	200	5
1	999	205	5
1	1008	210	6
1	1027	210	6
1	1049	215	5
1	1063	220	6
1	1080	220	5
1	1103	225	4
1	1118	230	5
1	1132	230	4
1	1149	235	3
1	1164	240	4
1	1175	240	3
1	1196	245	2
1	1215	250	3
1	1226	250	2
1	1244	255	2
1	1258	260	3
1	1273	260	3
1	1292	265	3
1	1300	270	4
1	1315	270	4
1	1331	275	4
1	1342	280	5
1	1361	280	5
1	1382	285	4
1	1395	290	5
1	1410	290	4
1	1425	295	3
1	1441	300	4
1	1453	300	3
1	1470	305	2
1	1491	310	3
1	1502	310	2
1	1524	315	1
1	1543	320	2
1	1554	320	1
1	1577	325	0
1	1601	330	1
1	1626	330	1
1	1650	335	0
1	1658	340	1
1	1675	340	1
1	1690	345	0
1	1706	350	1
1	1727	350	1
1	1743	355	0
1	1754	360	1
1	1773	360	1
1	1792	365	1
1	1804	370	2
1	1825	370	2
1	1840	375	2
1	1846	380	3
1	1859	380	3
1	1874	385	2
1	1889	390	3
1	1901	390	2
1	1917	395	1
1	1937	400	2
1	1948	400	1
1	1973	405	0
1	1992	410	1
1	2011	410	1
1	2031	415	0
1	2041	420	1
1	2058	420	1
1	2076	425	0
1	2087	430	1
1	2104	430	1
1	2123	435	0
1	2135	440	1
1	2152	440	1
1	2170	445	0
1	2183	450	1
1	2204	450	1
1	2227	455	0
1	2240	460	1
1	2261	460	1
1	2282	465	1
1	2292	470	2
1	2311	470	2
1	2328	475	2
1	2338	480	3
1	2353	480	2
1	2371	485	1
1	2387	490	2
1	2398	490	1
1	2419	495	1
1	2431	500	2
1	2444	500	2
1	2463	505	2
1	2474	510	3
1	2491	510	3
1	2507	515	3
1	2519	520	4
1	2536	520	4
1	2557	525	4
1	2567	530	5
1	2586	530	5
1	2604	535	5
1	2615	540	6
1	2636	540	6
1	2657	545	6
1	2668	550	7
1	2691	550	7
1	2715	555	7
1	2725	560	8
1	2743	560	7
1	2757	565	6
1	2769	570	7
1	2784	570	6
1	2805	575	5
1	2824	580	6
1	2837	580	5
1	2856	585	4
1	2873	590	5
1	2886	590	4
1	2909	595	3
1	2929	600	4
1	2941	600	3
1	2961	605	3
1	2977	610	4
1	2994	610	4
1	3012	615	4
1	3023	620	5
1	3044	620	5
1	3065	625	5
1	3075	630	6
1	3094	630	6
1	3112	635	6
1	3123	640	7
1	3142	640	7
1	3161	645	7
1	3169	650	8
1	3186	650	8
1	3206	655	7
1	3224	660	8
1	3241	660	7
1	3263	665	7
1	3276	670	8
1	3293	670	8
1	3306	675	8
1	3317	680	9
1	3334	680	9
1	3355	685	9
1	3370	690	10
1	3393	690	10
1	3416	695	10
1	3425	700	11
1	3446	700	11
1	3463	705	11
1	3474	710	12
1	3493	710	11
1	3516	715	10
1	3534	720	11
1	3552	720	10
1	3577	725	9
1	3593	730	10
1	3609	730	9
1	3627	735	8
1	3643	740	9
1	3657	740	8
1	3675	745	7
1	3695	750	8
1	3708	750	7
1	3735	755	7
1	3750	760	8
1	3767	760	8
1	3780	765	8
1	3792	770	9
1	3811	770	9
1	3831	775	9
1	3842	780	10
1	3857	780	10
1	3878	785	10
1	3890	790	11
1	3913	790	11
1	3932	795	11
1	3938	800	12
1	3953	800	12
1	3970	805	11
1	3986	810	12
1	4000	810	12
1	4025	815	12
1	4035	820	13
1	4054	820	13
1	4070	825	13
1	4078	830	14
1	4093	830	14
1	4111	835	13
1	4127	840	14
1	4141	840	13
1	4158	845	13
1	4169	850	14
1	4182	850	14
1	4198	855	14
1	4211	860	15
1	4230	860	15
1	4254	865	15
1	4265	870	16
1	4286	870	15
1	4304	875	15
1	4313	880	16
1	4330	880	16
1	4347	885	16
1	4359	890	17
1	4378	890	17
1	4396	895	16
1	4414	900	17
1	4428	900	17
1	4447	905	17
1	4457	910	18
1	4474	910	18
1	4492	915	17
1	4507	920	18
1	4519	920	17
1	4537	925	16
1	4557	930	17
1	4568	930	16
1	4583	935	15
1	4598	940	16
1	4609	940	15
1	4627	945	14
1	4647	950	15
1	4658	950	15
1	4686	955	15
1	4694	960	16
1	4711	960	16
1	4728	965	15
1	4741	970	16
1	4754	970	15
1	4774	975	14
1	4795	980	15
1	4807	980	15
1	4833	985	15
1	4843	990	16
1	4862	990	16
1	4883	995	16
1	4895	1000	17
1	4916	1000	17
1	4932	1005	17
1	4939	1010	18
1	4954	1010	18
1	4969	1015	18
1	4982	1020	19
1	5001	1020	19
1	5023	1025	19
1	5031	1030	20
1	5050	1030	20
1	5075	1035	20
1	5085	1040	21
1	5106	1040	21
1	5122	1045	21
1	5129	1050	22
1	5142	1050	22
1	5156	1055	22
1	5167	1060	23
1	5184	1060	23
1	5204	1065	23
1	5217	1070	24
1	5240	1070	24
1	5257	1075	24
1	5265	1080	25
1	5282	1080	25
1	5299	1085	25
1	5312	1090	26
1	5332	1090	26
1	5352	1095	26
1	5362	1100	27
1	5383	1100	27
1	5405	1105	27
1	5413	1110	28
1	5432	1110	28
1	5454	1115	28
1	5465	1120	29
1	5488	1120	29
1	5510	1125	29
1	5519	1130	30
1	5535	1130	30
1	5551	1135	30
1	5561	1140	31
1	5578	1140	31
1	5595	1145	31
1	5607	1150	32
1	5624	1150	32
1	5645	1155	32
1	5655	1160	33
1	5676	1160	33
1	5703	1165	33
1	5713	1170	34
1	5734	1170	34
1	5745	1175	34
1	5754	1180	35
1	5769	1180	35
1	5790	1185	35
1	5801	1190	36
1	5817	1190	36
1	5826	1195	36
1	5838	1200	37
1	5855	1200	37
1	5881	1205	37
1	5891	1210	38
1	5914	1210	38
1	5939	1215	38
1	5945	1220	39
1	5962	1220	39
1	5975	1225	39
1	5988	1230	40
1	6009	1230	40
1	6030	1235	40
1	6041	1240	41
1	6064	1240	41
1	6088	1245	41
1	6099	1250	42
1	6120	1250	42
1	6137	1255	42
1	6148	1260	43
1	6167	1260	42
1	6187	1265	42
1	6198	1270	43
1	6215	1270	43
1	6233	1275	43
1	6245	1280	44
1	6260	1280	43
1	6284	1285	42
1	6305	1290	43
1	6318	1290	42
1	6335	1295	41
1	6354	1300	42
1	6365	1300	41
1	6387	1305	40
1	6405	1310	41
1	6416	1310	40
1	6436	1315	39
1	6455	1320	40
1	6466	1320	39
1	6489	1325	38
1	6508	1330	39
1	6519	1330	38
1	6541	1335	37
1	6559	1340	38
1	6570	1340	37
1	6590	1345	36
1	6610	1350	37
1	6621	1350	37
1	6645	1355	37
1	6656	1360	38
1	6675	1360	38
1	6696	1365	38
1	6706	1370	39
1	6725	1370	39
1	6743	1375	39
1	6759	1380	40
1	6780	1380	40
1	6800	1385	40
1	6811	1390	41
1	6830	1390	40
1	6845	1395	39
1	6857	1400	40
1	6870	1400	39
1	6890	1405	38
1	6909	1410	39
1	6922	1410	38
1	6946	1415	38
1	6963	1420	39
1	6982	1420	39
1	7005	1425	39
1	7013	1430	40
1	7030	1430	40
1	7049	1435	40
1	7060	1440	41
1	7081	1440	41
1	7103	1445	40
1	7114	1450	41
1	7133	1450	40
1	7157	1455	39
1	7176	1460	40
1	7194	1460	40
1	7220	1465	40
1	7229	1470	41
1	7250	1470	41
1	7269	1475	41
1	7280	1480	42
1	7299	1480	42
1	7312	1485	41
1	7328	1490	42
1	7343	1490	42
1	7366	1495	42
1	7377	1500	43
1	7396	1500	43
1	7414	1505	43
1	7426	1510	44
1	7445	1510	43
1	7466	1515	42
1	7478	1520	43
1	7492	1520	43
1	7515	1525	43
1	7524	1530	44
1	7543	1530	44
1	7563	1535	44
1	7573	1540	45
1	7592	1540	45
1	7609	1545	44
1	7626	1550	45
1	7642	1550	44
1	7662	1555	44
1	7672	1560	45
1	7685	1560	45
1	7704	1565	45
1	7717	1570	46
1	7736	1570	46
1	7747	1575	46
1	7759	1580	47
1	7772	1580	46
1	7788	1585	45
1	7809	1590	46
1	7820	1590	45
1	7843	1595	44
1	7866	1600	45
1	7877	1600	44
1	7898	1605	43
1	7920	1610	44
1	7931	1610	43
1	7952	1615	42
1	7972	1620	43
1	7983	1620	42
1	8006	1625	41
1	8031	1630	42
1	8042	1630	41
1	8061	1635	41
1	8076	1640	42
1	8093	1640	42
1	8113	1645	42
1	8125	1650	43
1	8142	1650	42
1	8160	1655	41
1	8177	1660	42
1	8192	1660	41
1	8216	1665	40
1	8230	1670	41
1	8241	1670	40
1	8258	1675	39
1	8275	1680	40
1	8286	1680	39
1	8305	1685	39
1	8321	1690	40
1	8338	1690	40
1	8354	1695	40
1	8365	1700	41
1	8384	1700	41
1	8406	1705	41
1	8418	1710	42
1	8437	1710	41
1	8457	1715	40
1	8473	1720	41
1	8488	1720	41
1	8514	1725	41
1	8525	1730	42
1	8548	1730	42
1	8571	1735	42
1	8580	1740	43
1	8597	1740	42
1	8614	1745	41
1	8628	1750	42
1	8641	1750	41
1	8661	1755	40
1	8677	1760	41
1	8690	1760	40
1	8711	1765	39
1	8730	1770	40
1	8741	1770	39
1	8761	1775	38
1	8778	1780	39
1	8789	1780	38
1	8809	1785	38
1	8824	1790	39
1	8841	1790	39
1	8862	1795	39
1	8870	1800	40
1	8887	1800	40
1	8909	1805	40
1	8916	1810	41
1	8933	1810	41
1	8952	1815	40
1	8968	1820	41
1	8984	1820	40
1	9004	1825	39
1	9021	1830	40
1	9035	1830	39
1	9052	1835	38
1	9069	1840	39
1	9082	1840	38
1	9105	1845	38
1	9122	1850	39
1	9143	1850	39
1	9165	1855	39
1	9175	1860	40
1	9194	1860	39
1	9217	1865	39
1	9231	1870	40
1	9251	1870	40
1	9268	1875	40
1	9278	1880	41
1	9297	1880	41
1	9316	1885	41
1	9327	1890	42
1	9348	1890	42
1	9372	1895	41
1	9389	1900	42
1	9410	1900	42
1	9440	1905	42
1	9448	1910	43
1	9471	1910	43
1	9497	1915	43
1	9507	1920	44
1	9530	1920	44
1	9548	1925	43
1	9559	1930	44
1	9576	1930	43
1	9597	1935	42
1	9612	1940	43
1	9629	1940	42
1	9652	1945	42
1	9669	1950	43
1	9692	1950	43
1	9709	1955	43
1	9718	1960	44
1	9735	1960	43
1	9754	1965	42
1	9768	1970	43
1	9785	1970	42
1	9808	1975	41
1	9825	1980	42
1	9841	1980	41
1	9861	1985	41
1	9872	1990	42
1	9887	1990	42
1	9905	1995	42
1	9916	2000	43
1	9931	2000	42
1	9945	2005	41
1	9959	2010	42
1	9970	2010	41
1	9989	2015	40
1	10011	2020	41
1	10022	2020	40
1	10039	2025	39
1	10056	2030	40
1	10067	2030	39
1	10088	2035	39
1	10107	2040	40
1	10126	2040	40
1	10147	2045	40
1	10158	2050	41
1	10179	2050	41
1	10196	2055	41
1	10209	2060	42
1	10227	2060	41
1	10246	2065	40
1	10261	2070	41
1	10274	2070	40
1	10296	2075	39
1	10316	2080	40
1	10329	2080	39
1	10353	2085	38
1	10376	2090	39
1	10389	2090	38
1	10412	2095	37
1	10429	2100	38
1	10441	2100	37
1	10455	2105	37
1	10468	2110	38
1	10483	2110	38
1	10504	2115	38
1	10518	2120	39
1	10536	2120	39
1	10560	2125	39
1	10571	2130	40
1	10592	2130	40
1	10609	2135	40
1	10619	2140	41
1	10638	2140	41
1	10656	2145	40
1	10669	2150	41
1	10684	2150	41
1	10708	2155	41
1	10717	2160	42
1	10736	2160	42
1	10761	2165	42
1	10771	2170	43
1	10792	2170	43
1	10810	2175	43
1	10821	2180	44
1	10838	2180	44
1	10851	2185	44
1	10865	2190	45
1	10888	2190	45
1	10913	2195	45
1	10916	2200	46
1	10931	2200	46
1	10947	2205	45
1	10959	2210	46
1	10974	2210	45
1	10992	2215	45
1	11007	2220	46
1	11026	2220	46
1	11048	2225	46
1	11061	2230	47
1	11086	2230	47
1	11105	2235	47
1	11113	2240	48
1	11132	2240	48
1	11151	2245	48
1	11162	2250	49
1	11183	2250	49
1	11206	2255	48
1	11222	2260	49
1	11242	2260	48
1	11267	2265	47
1	11285	2270	48
1	11304	2270	47
1	11332	2275	47
1	11348	2280	48
1	11369	2280	48
1	11382	2285	48
1	11393	2290	49
1	11410	2290	49
1	11429	2295	49
1	11439	2300	50
1	11456	2300	50
1	11473	2305	49
1	11491	2310	50
1	11506	2310	49
1	11529	2315	49
1	11543	2320	50
1	11562	2320	50
1	11585	2325	50
1	11594	2330	51
1	11613	2330	51
1	11629	2335	50
1	11643	2340	51
1	11658	2340	51
1	11669	2345	51
1	11681	2350	52
1	11698	2350	52
1	11714	2355	52
1	11722	2360	53
1	11735	2360	53
1	11745	2365	52
1	11759	2370	53
1	11770	2370	52
1	11787	2375	51
1	11805	2380	52
1	11816	2380	51
1	11838	2385	50
1	11862	2390	51
1	11873	2390	50
1	11896	2395	49
1	11914	2400	50
1	11925	2400	49
1	11945	2405	49
1	11963	2410	50
1	11981	2410	50
1	11993	2415	50
1	12005	2420	51
1	12024	2420	51
1	12046	2425	51
1	12058	2430	52
1	12077	2430	51
1	12098	2435	50
1	12116	2440	51
1	12131	2440	50
1	12150	2445	49
1	12167	2450	50
1	12178	2450	49
1	12199	2455	48
1	12219	2460	49
1	12230	2460	48
1	12248	2465	47
1	12267	2470	48
1	12278	2470	48
1	12301	2475	48
1	12312	2480	49
1	12331	2480	49
1	12351	2485	49
1	12359	2490	50
1	12376	2490	50
1	12396	2495	49
1	12412	2500	50
1	12429	2500	49
1	12453	2505	48
1	12471	2510	49
1	12486	2510	49
1	12509	2515	49
1	12519	2520	50
1	12538	2520	50
1	12557	2525	50
1	12566	2530	51
1	12581	2530	50
1	12600	2535	49
1	12614	2540	50
1	12627	2540	49
1	12647	2545	49
1	12661	2550	50
1	12678	2550	50
1	12696	2555	50
1	12706	2560	51
1	12723	2560	51
1	12742	2565	51
1	12754	2570	52
1	12773	2570	51
1	12795	2575	51
1	12807	2580	52
1	12826	2580	52
1	12843	2585	52
1	12853	2590	53
1	12868	2590	52
1	12887	2595	51
1	12904	2600	52
1	12919	2600	51
1	12944	2605	51
1	12960	2610	52
1	12979	2610	52
1	12997	2615	52
1	13007	2620	53
1	13026	2620	53
1	13052	2625	53
1	13062	2630	54
1	13083	2630	54
1	13102	2635	54
1	13110	2640	55
1	13127	2640	55
1	13144	2645	55
1	13155	2650	56
1	13172	2650	55
1	13193	2655	54
1	13210	2660	55
1	13226	2660	54
1	13246	2665	53
1	13262	2670	54
1	13275	2670	53
1	13296	2675	52
1	13315	2680	53
1	13328	2680	52
1	13353	2685	51
1	13369	2690	52
1	13382	2690	51
1	13402	2695	50
1	13416	2700	51
1	13429	2700	51
1	13442	2705	51
1	13454	2710	52
1	13469	2710	52
1	13483	2715	51
1	13494	2720	52
1	13505	2720	51
1	13519	2725	50
1	13536	2730	51
1	13547	2730	50
1	13565	2735	49
1	13584	2740	50
1	13595	2740	49
1	13618	2745	48
1	13638	2750	49
1	13649	2750	48
1	13667	2755	47
1	13686	2760	48
1	13697	2760	47
1	13719	2765	46
1	13736	2770	47
1	13747	2770	46
1	13768	2775	45
1	13791	2780	46
1	13802	2780	46
1	13825	2785	46
1	13836	2790	47
1	13855	2790	47
1	13886	2795	47
1	13896	2800	48
1	13917	2800	48
1	13927	2805	47
1	13939	2810	48
1	13954	2810	47
1	13973	2815	46
1	13990	2820	47
1	14004	2820	46
1	14022	2825	45
1	14037	2830	46
1	14049	2830	45
1	14063	2835	44
1	14078	2840	45
1	14089	2840	44
1	14110	2845	43
1	14131	2850	44
1	14142	2850	43
1	14165	2855	42
1	14188	2860	43
1	14199	2860	43
1	14228	2865	43
1	14236	2870	44
1	14253	2870	44
1	14272	2875	43
1	14287	2880	44
1	14303	2880	44
1	14325	2885	44
1	14336	2890	45
1	14357	2890	45
1	14380	2895	45
1	14392	2900	46
1	14413	2900	46
1	14432	2905	46
1	14440	2910	47
1	14455	2910	47
1	14466	2915	47
1	14477	2920	48
1	14492	2920	48
1	14520	2925	48
1	14528	2930	49
1	14549	2930	49
1	14569	2935	48
1	14581	2940	49
1	14597	2940	48
1	14615	2945	47
1	14629	2950	48
1	14643	2950	48
1	14660	2955	48
1	14670	2960	49
1	14687	2960	49
1	14707	2965	49
1	14717	2970	50
1	14736	2970	50
1	14757	2975	50
1	14768	2980	51
1	14789	2980	51
1	14811	2985	51
1	14820	2990	52
1	14839	2990	51
1	14860	2995	50
1	14873	3000	51
1	14892	3000	50
1	14916	3005	49
1	14932	3010	50
1	14949	3010	49
1	14967	3015	48
1	14981	3020	49
1	14994	3020	48
1	15013	3025	47
1	15030	3030	48
1	15043	3030	47
1	15065	3035	47
1	15082	3040	48
1	15103	3040	48
1	15127	3045	48
1	15138	3050	49
1	15161	3050	49
1	15179	3055	48
1	15189	3060	49
1	15206	3060	48
1	15226	3065	47
1	15241	3070	48
1	15258	3070	47
1	15282	3075	46
1	15300	3080	47
1	15315	3080	46
1	15335	3085	46
1	15352	3090	47
1	15373	3090	47
1	15392	3095	47
1	15401	3100	48
1	15420	3100	48
1	15440	3105	47
1	15452	3110	48
1	15467	3110	47
1	15482	3115	47
1	15493	3120	48
1	15506	3120	48
1	15522	3125	48
1	15532	3130	49
1	15545	3130	49
1	15557	3135	48
1	15575	3140	49
1	15586	3140	49
1	15615	3145	49
1	15626	3150	50
1	15647	3150	50
1	15664	3155	50
1	15677	3160	51
1	15700	3160	51
1	15717	3165	51
1	15724	3170	52
1	15739	3170	52
1	15755	3175	52
1	15765	3180	53
1	15782	3180	53
1	15803	3185	53
1	15811	3190	54
1	15828	3190	54
1	15843	3195	54
1	15852	3200	55
1	15867	3200	55
1	15883	3205	54
1	15897	3210	55
1	15912	3210	54
1	15934	3215	54
1	15949	3220	55
1	15968	3220	55
1	15983	3225	55
1	15995	3230	56
1	16014	3230	56
1	16032	3235	56
1	16043	3240	57
1	16062	3240	56
1	16083	3245	56
1	16094	3250	57
1	16113	3250	57
1	16132	3255	57
1	16144	3260	58
1	16163	3260	57
1	16186	3265	56
1	16202	3270	57
1	16221	3270	56
1	16245	3275	55
1	16258	3280	56
1	16271	3280	55
1	16290	3285	54
1	16308	3290	55
1	16321	3290	54
1	16345	3295	53
1	16363	3300	54
1	16376	3300	53
1	16394	3305	52
1	16411	3310	53
1	16423	3310	53
1	16448	3315	53
1	16459	3320	54
1	16478	3320	54
1	16493	3325	54
1	16505	3330	55
1	16526	3330	55
1	16551	3335	55
1	16560	3340	56
1	16581	3340	55
1	16603	3345	55
1	16612	3350	56
1	16631	3350	56
1	16653	3355	56
1	16663	3360	57
1	16682	3360	57
1	16697	3365	57
1	16707	3370	58
1	16724	3370	58
1	16744	3375	57
1	16760	3380	58
1	16773	3380	57
1	16790	3385	56
1	16810	3390	57
1	16821	3390	56
1	16845	3395	55
1	16869	3400	56
1	16880	3400	55
1	16903	3405	54
1	16919	3410	55
1	16930	3410	54
1	16947	3415	53
1	16964	3420	54
1	16975	3420	53
1	16995	3425	52
1	17013	3430	53
1	17024	3430	53
1	17047	3435	53
1	17057	3440	54
1	17074	3440	54
1	17092	3445	54
1	17102	3450	55
1	17117	3450	54
1	17138	3455	53
1	17157	3460	54
1	17170	3460	54
1	17197	3465	54
1	17205	3470	55
1	17222	3470	55
1	17242	3475	55
1	17252	3480	56
1	17271	3480	56
1	17293	3485	56
1	17308	3490	57
1	17327	3490	57
1	17338	3495	57
1	17349	3500	58
1	17364	3500	58
1	17375	3505	58
1	17387	3510	59
1	17404	3510	59
1	17423	3515	59
1	17432	3520	60
1	17445	3520	59
1	17464	3525	58
1	17481	3530	59
1	17494	3530	58
1	17517	3535	57
1	17535	3540	58
1	17548	3540	57
1	17571	3545	57
1	17589	3550	58
1	17610	3550	58
1	17629	3555	58
1	17639	3560	59
1	17660	3560	59
1	17681	3565	59
1	17692	3570	60
1	17715	3570	60
1	17737	3575	59
1	17747	3580	60
1	17764	3580	59
1	17781	3585	58
1	17797	3590	59
1	17811	3590	58
1	17828	3595	57
1	17844	3600	58
1	17857	3600	57
2	3	5	0
2	13	10	1
2	24	10	1
2	45	15	0
2	60	20	1
2	71	20	1
2	86	25	0
2	104	30	1
2	119	30	1
2	140	35	0
2	154	40	1
2	168	40	1
2	189	45	0
2	207	50	1
2	223	50	1
2	244	55	1
2	257	60	2
2	272	60	2
2	294	65	2
2	303	70	3
2	317	70	2
2	338	75	1
2	357	80	2
2	369	80	1
2	393	85	1
2	412	90	2
2	433	90	2
2	459	95	2
2	464	100	3
2	481	100	3
2	503	105	3
2	514	110	4
2	530	110	3
2	551	115	3
2	564	120	4
2	581	120	4
2	602	125	4
2	611	130	5
2	629	130	5
2	654	135	5
2	666	140	6
2	688	140	6
2	707	145	6
2	715	150	7
2	730	150	7
2	751	155	7
2	760	160	8
2	777	160	8
2	800	165	8
2	806	170	9
2	820	170	9
2	841	175	9
2	852	180	10
2	870	180	10
2	898	185	10
2	909	190	11
2	930	190	11
2	949	195	10
2	961	200	11
2	977	200	10
2	996	205	10
2	1009	210	11
2	1028	210	11
2	1055	215	11
2	1064	220	12
2	1084	220	12
2	1107	225	12
2	1119	230	13
2	1135	230	13
2	1157	235	13
2	1165	240	14
2	1179	240	14
2	1200	245	13
2	1216	250	14
2	1230	250	14
2	1250	255	14
2	1259	260	15
2	1274	260	15
2	1293	265	15
2	1301	270	16
2	1313	270	15
2	1328	275	15
2	1343	280	16
2	1362	280	16
2	1387	285	16
2	1396	290	17
2	1414	290	17
2	1429	295	17
2	1442	300	18
2	1460	300	18
2	1476	305	17
2	1492	310	18
2	1507	310	17
2	1527	315	17
2	1544	320	18
2	1564	320	18
2	1591	325	18
2	1602	330	19
2	1627	330	19
2	1653	335	19
2	1659	340	20
2	1676	340	20
2	1692	345	19
2	1707	350	20
2	1720	350	20
2	1745	355	20
2	1755	360	21
2	1774	360	21
2	1793	365	21
2	1805	370	22
2	1826	370	22
2	1839	375	22
2	1847	380	23
2	1860	380	23
2	1878	385	23
2	1890	390	24
2	1905	390	24
2	1925	395	24
2	1938	400	25
2	1960	400	25
2	1986	405	25
2	1993	410	26
2	2012	410	26
2	2034	415	26
2	2042	420	27
2	2059	420	27
2	2078	425	27
2	2088	430	28
2	2105	430	28
2	2128	435	28
2	2136	440	29
2	2153	440	29
2	2173	445	29
2	2184	450	30
2	2198	450	29
2	2221	455	28
2	2241	460	29
2	2254	460	28
2	2276	465	27
2	2293	470	28
2	2305	470	27
2	2323	475	26
2	2339	480	27
2	2349	480	26
2	2369	485	26
2	2388	490	27
2	2408	490	27
2	2425	495	27
2	2432	500	28
2	2445	500	28
2	2464	505	28
2	2475	510	29
2	2492	510	29
2	2508	515	28
2	2520	520	29
2	2534	520	28
2	2553	525	28
2	2568	530	29
2	2587	530	29
2	2605	535	29
2	2616	540	30
2	2634	540	29
2	2655	545	28
2	2669	550	29
2	2687	550	28
2	2709	555	27
2	2726	560	28
2	2740	560	28
2	2759	565	28
2	2770	570	29
2	2786	570	29
2	2816	575	29
2	2825	580	30
2	2845	580	30
2	2862	585	30
2	2874	590	31
2	2892	590	30
2	2914	595	29
2	2930	600	30
2	2945	600	29
2	2964	605	28
2	2978	610	29
2	2990	610	28
2	3007	615	27
2	3024	620	28
2	3034	620	27
2	3056	625	27
2	3076	630	28
2	3095	630	28
2	3113	635	28
2	3124	640	29
2	3141	640	29
2	3162	645	29
2	3170	650	30
2	3187	650	30
2	3212	655	30
2	3225	660	31
2	3249	660	31
2	3268	665	31
2	3277	670	32
2	3294	670	32
2	3307	675	32
2	3318	680	33
2	3335	680	33
2	3356	685	32
2	3371	690	33
2	3387	690	32
2	3410	695	32
2	3426	700	33
2	3447	700	33
2	3464	705	33
2	3475	710	34
2	3495	710	34
2	3522	715	34
2	3535	720	35
2	3557	720	34
2	3580	725	33
2	3594	730	34
2	3611	730	33
2	3629	735	32
2	3644	740	33
2	3659	740	33
2	3683	745	33
2	3696	750	34
2	3720	750	34
2	3743	755	34
2	3751	760	35
2	3768	760	35
2	3781	765	35
2	3793	770	36
2	3812	770	36
2	3832	775	36
2	3843	780	37
2	3858	780	37
2	3879	785	37
2	3891	790	38
2	3914	790	38
2	3933	795	38
2	3939	800	39
2	3954	800	39
2	3974	805	39
2	3987	810	40
2	4007	810	40
2	4026	815	40
2	4036	820	41
2	4055	820	41
2	4068	825	40
2	4079	830	41
2	4091	830	40
2	4109	835	39
2	4128	840	40
2	4140	840	40
2	4163	845	40
2	4170	850	41
2	4183	850	41
2	4199	855	41
2	4212	860	42
2	4226	860	42
2	4255	865	42
2	4266	870	43
2	4288	870	43
2	4305	875	43
2	4314	880	44
2	4331	880	44
2	4348	885	44
2	4360	890	45
2	4379	890	45
2	4402	895	45
2	4415	900	46
2	4431	900	45
2	4441	905	44
2	4458	910	45
2	4468	910	44
2	4488	915	44
2	4508	920	45
2	4528	920	45
2	4545	925	45
2	4558	930	46
2	4576	930	46
2	4587	935	46
2	4599	940	47
2	4615	940	47
2	4633	945	46
2	4648	950	47
2	4662	950	46
2	4679	955	45
2	4695	960	46
2	4705	960	45
2	4724	965	44
2	4742	970	45
2	4752	970	44
2	4772	975	43
2	4796	980	44
2	4806	980	44
2	4834	985	44
2	4844	990	45
2	4863	990	45
2	4887	995	45
2	4896	1000	46
2	4917	1000	46
2	4933	1005	46
2	4940	1010	47
2	4950	1010	46
2	4965	1015	45
2	4983	1020	46
2	4993	1020	45
2	5013	1025	45
2	5032	1030	46
2	5051	1030	46
2	5076	1035	46
2	5086	1040	47
2	5107	1040	47
2	5124	1045	47
2	5130	1050	48
2	5143	1050	48
2	5155	1055	48
2	5168	1060	49
2	5185	1060	49
2	5205	1065	49
2	5218	1070	50
2	5241	1070	50
2	5258	1075	50
2	5266	1080	51
2	5283	1080	51
2	5300	1085	51
2	5313	1090	52
2	5328	1090	51
2	5346	1095	50
2	5363	1100	51
2	5377	1100	50
2	5398	1105	50
2	5414	1110	51
2	5433	1110	51
2	5455	1115	51
2	5466	1120	52
2	5489	1120	52
2	5511	1125	51
2	5520	1130	52
2	5534	1130	52
2	5552	1135	52
2	5562	1140	53
2	5579	1140	53
2	5596	1145	53
2	5608	1150	54
2	5625	1150	54
2	5637	1155	53
2	5656	1160	54
2	5668	1160	53
2	5691	1165	52
2	5714	1170	53
2	5726	1170	53
2	5746	1175	53
2	5755	1180	54
2	5770	1180	54
2	5786	1185	53
2	5802	1190	54
2	5814	1190	54
2	5827	1195	54
2	5839	1200	55
2	5856	1200	55
2	5882	1205	55
2	5892	1210	56
2	5915	1210	56
2	5936	1215	56
2	5946	1220	57
2	5963	1220	57
2	5976	1225	57
2	5989	1230	58
2	6010	1230	58
2	6031	1235	58
2	6042	1240	59
2	6065	1240	59
2	6092	1245	59
2	6100	1250	60
2	6118	1250	59
2	6135	1255	58
2	6149	1260	59
2	6165	1260	58
2	6185	1265	57
2	6199	1270	58
2	6209	1270	57
2	6227	1275	57
2	6246	1280	58
2	6268	1280	58
2	6294	1285	58
2	6306	1290	59
2	6328	1290	59
2	6343	1295	59
2	6355	1300	60
2	6375	1300	60
2	6395	1305	59
2	6406	1310	60
2	6422	1310	59
2	6441	1315	58
2	6456	1320	59
2	6470	1320	58
2	6493	1325	58
2	6509	1330	59
2	6529	1330	59
2	6551	1335	59
2	6560	1340	60
2	6578	1340	60
2	6600	1345	60
2	6611	1350	61
2	6627	1350	61
2	6639	1355	60
2	6657	1360	61
2	6668	1360	60
2	6686	1365	59
2	6707	1370	60
2	6717	1370	60
2	6750	1375	60
2	6760	1380	61
2	6781	1380	61
2	6798	1385	60
2	6812	1390	61
2	6828	1390	60
2	6844	1395	60
2	6858	1400	61
2	6876	1400	61
2	6898	1405	61
2	6910	1410	62
2	6932	1410	62
2	6957	1415	62
2	6964	1420	63
2	6983	1420	63
2	7002	1425	63
2	7014	1430	64
2	7031	1430	64
2	7050	1435	64
2	7061	1440	65
2	7079	1440	64
2	7101	1445	63
2	7115	1450	64
2	7131	1450	63
2	7155	1455	62
2	7177	1460	63
2	7192	1460	62
2	7214	1465	62
2	7230	1470	63
2	7251	1470	63
2	7270	1475	63
2	7281	1480	64
2	7295	1480	63
2	7310	1485	62
2	7329	1490	63
2	7341	1490	62
2	7360	1495	61
2	7378	1500	62
2	7389	1500	61
2	7406	1505	60
2	7427	1510	61
2	7437	1510	60
2	7460	1515	60
2	7479	1520	61
2	7495	1520	61
2	7516	1525	61
2	7525	1530	62
2	7544	1530	62
2	7561	1535	61
2	7574	1540	62
2	7587	1540	61
2	7605	1545	60
2	7627	1550	61
2	7639	1550	61
2	7667	1555	61
2	7673	1560	62
2	7686	1560	62
2	7700	1565	61
2	7718	1570	62
2	7730	1570	62
2	7748	1575	62
2	7760	1580	63
2	7776	1580	63
2	7798	1585	63
2	7810	1590	64
2	7832	1590	64
2	7855	1595	64
2	7867	1600	65
2	7888	1600	65
2	7908	1605	65
2	7921	1610	66
2	7943	1610	66
2	7962	1615	66
2	7973	1620	67
2	7993	1620	67
2	8020	1625	67
2	8032	1630	68
2	8053	1630	68
2	8067	1635	68
2	8077	1640	69
2	8094	1640	69
2	8114	1645	69
2	8126	1650	70
2	8146	1650	70
2	8166	1655	70
2	8178	1660	71
2	8200	1660	71
2	8226	1665	71
2	8231	1670	72
2	8247	1670	72
2	8264	1675	72
2	8276	1680	73
2	8294	1680	73
2	8311	1685	73
2	8322	1690	74
2	8339	1690	74
2	8355	1695	74
2	8366	1700	75
2	8385	1700	75
2	8407	1705	75
2	8419	1710	76
2	8441	1710	76
2	8460	1715	75
2	8474	1720	76
2	8489	1720	75
2	8508	1725	74
2	8526	1730	75
2	8540	1730	74
2	8563	1735	74
2	8581	1740	75
2	8601	1740	75
2	8619	1745	75
2	8629	1750	76
2	8647	1750	76
2	8666	1755	76
2	8678	1760	77
2	8698	1760	77
2	8720	1765	77
2	8731	1770	78
2	8751	1770	78
2	8769	1775	78
2	8779	1780	79
2	8797	1780	79
2	8816	1785	79
2	8825	1790	80
2	8839	1790	79
2	8857	1795	79
2	8871	1800	80
2	8888	1800	80
2	8910	1805	80
2	8917	1810	81
2	8934	1810	81
2	8956	1815	81
2	8969	1820	82
2	8988	1820	82
2	9010	1825	82
2	9022	1830	83
2	9041	1830	83
2	9058	1835	83
2	9070	1840	84
2	9090	1840	84
2	9111	1845	83
2	9123	1850	84
2	9139	1850	83
2	9159	1855	82
2	9176	1860	83
2	9188	1860	82
2	9212	1865	81
2	9232	1870	82
2	9244	1870	82
2	9269	1875	82
2	9279	1880	83
2	9298	1880	83
2	9317	1885	83
2	9328	1890	84
2	9346	1890	83
2	9370	1895	82
2	9390	1900	83
2	9408	1900	82
2	9433	1905	81
2	9449	1910	82
2	9465	1910	81
2	9489	1915	80
2	9508	1920	81
2	9522	1920	80
2	9541	1925	79
2	9560	1930	80
2	9570	1930	79
2	9591	1935	78
2	9613	1940	79
2	9623	1940	78
2	9647	1945	78
2	9670	1950	79
2	9693	1950	79
2	9710	1955	79
2	9719	1960	80
2	9737	1960	80
2	9756	1965	80
2	9769	1970	81
2	9787	1970	80
2	9810	1975	79
2	9826	1980	80
2	9843	1980	79
2	9862	1985	79
2	9873	1990	80
2	9888	1990	80
2	9906	1995	80
2	9917	2000	81
2	9933	2000	81
2	9947	2005	80
2	9960	2010	81
2	9972	2010	80
2	9991	2015	79
2	10012	2020	80
2	10024	2020	80
2	10045	2025	80
2	10057	2030	81
2	10075	2030	81
2	10098	2035	81
2	10108	2040	82
2	10127	2040	82
2	10143	2045	81
2	10159	2050	82
2	10174	2050	81
2	10192	2055	80
2	10210	2060	81
2	10224	2060	80
2	10245	2065	80
2	10262	2070	81
2	10282	2070	81
2	10306	2075	81
2	10317	2080	82
2	10339	2080	82
2	10363	2085	81
2	10377	2090	82
2	10398	2090	82
2	10420	2095	82
2	10430	2100	83
2	10446	2100	83
2	10456	2105	83
2	10469	2110	84
2	10484	2110	84
2	10505	2115	84
2	10519	2120	85
2	10542	2120	85
2	10561	2125	85
2	10572	2130	86
2	10593	2130	86
2	10610	2135	86
2	10620	2140	87
2	10639	2140	87
2	10658	2145	87
2	10670	2150	88
2	10685	2150	87
2	10703	2155	86
2	10718	2160	87
2	10730	2160	86
2	10751	2165	85
2	10772	2170	86
2	10784	2170	86
2	10813	2175	86
2	10822	2180	87
2	10839	2180	87
2	10852	2185	87
2	10866	2190	88
2	10880	2190	87
2	10904	2195	87
2	10917	2200	88
2	10932	2200	88
2	10949	2205	88
2	10960	2210	89
2	10976	2210	89
2	10993	2215	88
2	11008	2220	89
2	11018	2220	88
2	11038	2225	87
2	11062	2230	88
2	11072	2230	88
2	11106	2235	88
2	11114	2240	89
2	11133	2240	89
2	11152	2245	89
2	11163	2250	90
2	11184	2250	90
2	11208	2255	89
2	11223	2260	90
2	11244	2260	89
2	11269	2265	88
2	11286	2270	89
2	11306	2270	88
2	11333	2275	87
2	11349	2280	88
2	11364	2280	87
2	11378	2285	86
2	11394	2290	87
2	11405	2290	86
2	11421	2295	85
2	11440	2300	86
2	11450	2300	85
2	11469	2305	84
2	11492	2310	85
2	11502	2310	84
2	11526	2315	83
2	11544	2320	84
2	11554	2320	83
2	11575	2325	82
2	11595	2330	83
2	11605	2330	83
2	11631	2335	83
2	11644	2340	84
2	11661	2340	84
2	11670	2345	84
2	11682	2350	85
2	11694	2350	84
2	11711	2355	84
2	11723	2360	85
2	11736	2360	85
2	11747	2365	85
2	11760	2370	86
2	11772	2370	85
2	11789	2375	84
2	11806	2380	85
2	11818	2380	84
2	11840	2385	83
2	11863	2390	84
2	11875	2390	83
2	11898	2395	83
2	11915	2400	84
2	11933	2400	84
2	11953	2405	84
2	11964	2410	85
2	11982	2410	85
2	11994	2415	85
2	12006	2420	86
2	12025	2420	86
2	12044	2425	85
2	12059	2430	86
2	12076	2430	86
2	12106	2435	86
2	12117	2440	87
2	12139	2440	87
2	12159	2445	87
2	12168	2450	88
2	12186	2450	88
2	12206	2455	87
2	12220	2460	88
2	12235	2460	87
2	12252	2465	86
2	12268	2470	87
2	12281	2470	87
2	12302	2475	87
2	12313	2480	88
2	12332	2480	88
2	12352	2485	88
2	12360	2490	89
2	12377	2490	89
2	12398	2495	88
2	12413	2500	89
2	12431	2500	88
2	12455	2505	87
2	12472	2510	88
2	12487	2510	88
2	12510	2515	88
2	12520	2520	89
2	12539	2520	89
2	12556	2525	89
2	12567	2530	90
2	12585	2530	90
2	12605	2535	90
2	12615	2540	91
2	12633	2540	91
2	12653	2545	91
2	12662	2550	92
2	12679	2550	92
2	12697	2555	92
2	12707	2560	93
2	12724	2560	93
2	12738	2565	92
2	12755	2570	93
2	12769	2570	92
2	12792	2575	91
2	12808	2580	92
2	12818	2580	91
2	12837	2585	91
2	12854	2590	92
2	12872	2590	92
2	12891	2595	92
2	12905	2600	93
2	12929	2600	93
2	12953	2605	93
2	12961	2610	94
2	12980	2610	94
2	12995	2615	93
2	13008	2620	94
2	13024	2620	93
2	13045	2625	92
2	13063	2630	93
2	13077	2630	92
2	13097	2635	92
2	13111	2640	93
2	13128	2640	93
2	13145	2645	93
2	13156	2650	94
2	13174	2650	94
2	13199	2655	94
2	13211	2660	95
2	13232	2660	95
2	13253	2665	95
2	13263	2670	96
2	13283	2670	96
2	13304	2675	96
2	13316	2680	97
2	13338	2680	97
2	13363	2685	97
2	13370	2690	98
2	13388	2690	98
2	13407	2695	98
2	13417	2700	99
2	13431	2700	99
2	13443	2705	99
2	13455	2710	100
2	13470	2710	100
2	13488	2715	100
2	13495	2720	101
2	13507	2720	101
2	13523	2725	101
2	13537	2730	102
2	13555	2730	102
2	13573	2735	102
2	13585	2740	103
2	13605	2740	103
2	13630	2745	103
2	13639	2750	104
2	13657	2750	104
2	13675	2755	104
2	13687	2760	105
2	13705	2760	104
2	13725	2765	104
2	13737	2770	105
2	13755	2770	105
2	13780	2775	105
2	13792	2780	106
2	13810	2780	105
2	13823	2785	104
2	13837	2790	105
2	13851	2790	104
2	13874	2795	103
2	13897	2800	104
2	13909	2800	103
2	13923	2805	102
2	13940	2810	103
2	13950	2810	102
2	13969	2815	101
2	13991	2820	102
2	14001	2820	102
2	14028	2825	102
2	14038	2830	103
2	14054	2830	103
2	14067	2835	103
2	14079	2840	104
2	14095	2840	104
2	14116	2845	104
2	14132	2850	105
2	14154	2850	105
2	14177	2855	105
2	14189	2860	106
2	14211	2860	106
2	14229	2865	106
2	14237	2870	107
2	14254	2870	107
2	14276	2875	107
2	14288	2880	108
2	14306	2880	107
2	14323	2885	106
2	14337	2890	107
2	14353	2890	106
2	14377	2895	106
2	14393	2900	107
2	14414	2900	107
2	14433	2905	107
2	14441	2910	108
2	14456	2910	108
2	14467	2915	108
2	14478	2920	109
2	14493	2920	109
2	14511	2925	108
2	14529	2930	109
2	14541	2930	108
2	14562	2935	107
2	14582	2940	108
2	14592	2940	107
2	14611	2945	106
2	14630	2950	107
2	14640	2950	107
2	14661	2955	107
2	14671	2960	108
2	14688	2960	108
2	14708	2965	108
2	14718	2970	109
2	14737	2970	109
2	14758	2975	109
2	14769	2980	110
2	14790	2980	110
2	14812	2985	110
2	14821	2990	111
2	14841	2990	111
2	14862	2995	111
2	14874	3000	112
2	14894	3000	111
2	14918	3005	110
2	14933	3010	111
2	14951	3010	110
2	14969	3015	110
2	14982	3020	111
2	15000	3020	111
2	15019	3025	111
2	15031	3030	112
2	15051	3030	112
2	15073	3035	112
2	15083	3040	113
2	15104	3040	113
2	15125	3045	112
2	15139	3050	113
2	15158	3050	112
2	15178	3055	112
2	15190	3060	113
2	15208	3060	113
2	15230	3065	113
2	15242	3070	114
2	15264	3070	114
2	15290	3075	114
2	15301	3080	115
2	15323	3080	115
2	15341	3085	114
2	15353	3090	115
2	15369	3090	114
2	15389	3095	114
2	15402	3100	115
2	15421	3100	115
2	15443	3105	115
2	15453	3110	116
2	15471	3110	116
2	15486	3115	116
2	15494	3120	117
2	15507	3120	117
2	15520	3125	116
2	15533	3130	117
2	15544	3130	117
2	15563	3135	117
2	15576	3140	118
2	15594	3140	118
2	15616	3145	118
2	15627	3150	119
2	15648	3150	119
2	15665	3155	119
2	15678	3160	120
2	15695	3160	119
2	15715	3165	119
2	15725	3170	120
2	15740	3170	120
2	15756	3175	120
2	15766	3180	121
2	15778	3180	120
2	15797	3185	119
2	15812	3190	120
2	15824	3190	119
2	15840	3195	119
2	15853	3200	120
2	15868	3200	120
2	15885	3205	120
2	15898	3210	121
2	15914	3210	120
2	15935	3215	119
2	15950	3220	120
2	15963	3220	119
2	15979	3225	118
2	15996	3230	119
2	16007	3230	118
2	16024	3235	117
2	16044	3240	118
2	16054	3240	117
2	16076	3245	116
2	16095	3250	117
2	16105	3250	116
2	16124	3255	115
2	16145	3260	116
2	16155	3260	115
2	16178	3265	114
2	16203	3270	115
2	16213	3270	114
2	16240	3275	114
2	16259	3280	115
2	16277	3280	115
2	16296	3285	115
2	16309	3290	116
2	16331	3290	116
2	16353	3295	115
2	16364	3300	116
2	16381	3300	116
2	16400	3305	116
2	16412	3310	117
2	16430	3310	117
2	16449	3315	117
2	16460	3320	118
2	16479	3320	118
2	16494	3325	118
2	16506	3330	119
2	16522	3330	118
2	16544	3335	117
2	16561	3340	118
2	16575	3340	117
2	16599	3345	117
2	16613	3350	118
2	16632	3350	118
2	16654	3355	118
2	16664	3360	119
2	16683	3360	119
2	16698	3365	119
2	16708	3370	120
2	16725	3370	120
2	16746	3375	119
2	16761	3380	120
2	16775	3380	119
2	16792	3385	118
2	16811	3390	119
2	16823	3390	118
2	16847	3395	117
2	16870	3400	118
2	16882	3400	117
2	16905	3405	116
2	16920	3410	117
2	16932	3410	116
2	16949	3415	115
2	16965	3420	116
2	16977	3420	115
2	16997	3425	115
2	17014	3430	116
2	17032	3430	116
2	17048	3435	116
2	17058	3440	117
2	17075	3440	117
2	17093	3445	117
2	17103	3450	118
2	17121	3450	118
2	17142	3455	117
2	17158	3460	118
2	17173	3460	117
2	17192	3465	116
2	17206	3470	117
2	17218	3470	116
2	17236	3475	115
2	17253	3480	116
2	17265	3480	115
2	17288	3485	115
2	17309	3490	116
2	17328	3490	116
2	17339	3495	116
2	17350	3500	117
2	17365	3500	117
2	17376	3505	117
2	17388	3510	118
2	17400	3510	117
2	17419	3515	117
2	17433	3520	118
2	17451	3520	118
2	17470	3525	118
2	17482	3530	119
2	17502	3530	119
2	17524	3535	118
2	17536	3540	119
2	17554	3540	118
2	17576	3545	117
2	17590	3550	118
2	17606	3550	117
2	17626	3555	117
2	17640	3560	118
2	17661	3560	118
2	17682	3565	118
2	17693	3570	119
2	17716	3570	119
2	17739	3575	119
2	17748	3580	120
2	17766	3580	120
2	17783	3585	119
2	17798	3590	120
2	17813	3590	120
2	17834	3595	120
2	17845	3600	121
2	17861	3600	121
3	4	5	0
3	14	10	1
3	25	10	1
3	47	15	0
3	61	20	1
3	72	20	1
3	88	25	0
3	105	30	1
3	120	30	1
3	142	35	1
3	155	40	2
3	169	40	2
3	201	45	2
3	208	50	3
3	224	50	3
3	253	55	3
3	258	60	4
3	273	60	4
3	288	65	3
3	304	70	4
3	315	70	3
3	336	75	2
3	358	80	3
3	367	80	2
3	391	85	1
3	413	90	2
3	422	90	1
3	446	95	1
3	465	100	2
3	482	100	2
3	504	105	2
3	515	110	3
3	534	110	3
3	557	115	3
3	565	120	4
3	576	120	3
3	595	125	2
3	612	130	3
3	623	130	2
3	644	135	1
3	667	140	2
3	677	140	1
3	699	145	0
3	716	150	1
3	731	150	1
3	746	155	0
3	761	160	1
3	778	160	1
3	796	165	0
3	807	170	1
3	821	170	1
3	837	175	0
3	853	180	1
3	871	180	1
3	892	185	0
3	910	190	1
3	931	190	1
3	951	195	1
3	962	200	2
3	980	200	2
3	1000	205	2
3	1010	210	3
3	1029	210	3
3	1051	215	2
3	1065	220	3
3	1082	220	2
3	1105	225	1
3	1120	230	2
3	1134	230	2
3	1158	235	2
3	1166	240	3
3	1180	240	3
3	1202	245	3
3	1217	250	4
3	1234	250	4
3	1251	255	4
3	1260	260	5
3	1275	260	5
3	1294	265	5
3	1302	270	6
3	1316	270	6
3	1332	275	6
3	1344	280	7
3	1353	280	6
3	1375	285	6
3	1397	290	7
3	1415	290	7
3	1430	295	7
3	1443	300	8
3	1461	300	8
3	1478	305	8
3	1493	310	9
3	1514	310	9
3	1532	315	8
3	1545	320	9
3	1560	320	8
3	1583	325	7
3	1603	330	8
3	1616	330	7
3	1641	335	6
3	1660	340	7
3	1669	340	6
3	1686	345	5
3	1708	350	6
3	1717	350	6
3	1746	355	6
3	1756	360	7
3	1775	360	7
3	1794	365	7
3	1806	370	8
3	1820	370	7
3	1837	375	7
3	1848	380	8
3	1861	380	8
3	1879	385	8
3	1891	390	9
3	1906	390	9
3	1926	395	9
3	1939	400	10
3	1956	400	9
3	1979	405	8
3	1994	410	9
3	2005	410	8
3	2026	415	8
3	2043	420	9
3	2060	420	9
3	2079	425	9
3	2089	430	10
3	2106	430	10
3	2129	435	10
3	2137	440	11
3	2154	440	11
3	2172	445	11
3	2185	450	12
3	2205	450	12
3	2231	455	12
3	2242	460	13
3	2262	460	13
3	2283	465	13
3	2294	470	14
3	2312	470	14
3	2329	475	14
3	2340	480	15
3	2355	480	14
3	2373	485	13
3	2389	490	14
3	2400	490	13
3	2420	495	13
3	2433	500	14
3	2446	500	14
3	2465	505	14
3	2476	510	15
3	2493	510	15
3	2511	515	15
3	2521	520	16
3	2537	520	16
3	2554	525	16
3	2569	530	17
3	2588	530	17
3	2606	535	17
3	2617	540	18
3	2637	540	18
3	2658	545	18
3	2670	550	19
3	2692	550	19
3	2716	555	19
3	2727	560	20
3	2746	560	20
3	2760	565	20
3	2771	570	21
3	2787	570	21
3	2807	575	21
3	2826	580	22
3	2846	580	22
3	2863	585	22
3	2875	590	23
3	2894	590	23
3	2919	595	23
3	2931	600	24
3	2952	600	24
3	2969	605	24
3	2979	610	25
3	2995	610	25
3	3013	615	25
3	3025	620	26
3	3038	620	25
3	3059	625	24
3	3077	630	25
3	3088	630	24
3	3106	635	23
3	3125	640	24
3	3136	640	23
3	3155	645	23
3	3171	650	24
3	3188	650	24
3	3213	655	24
3	3226	660	25
3	3246	660	24
3	3266	665	23
3	3278	670	24
3	3291	670	23
3	3304	675	22
3	3319	680	23
3	3330	680	22
3	3351	685	21
3	3372	690	22
3	3383	690	21
3	3406	695	20
3	3427	700	21
3	3436	700	20
3	3455	705	19
3	3476	710	20
3	3485	710	19
3	3508	715	18
3	3536	720	19
3	3545	720	18
3	3571	725	17
3	3595	730	18
3	3604	730	17
3	3623	735	16
3	3645	740	17
3	3654	740	17
3	3684	745	17
3	3697	750	18
3	3721	750	18
3	3744	755	18
3	3752	760	19
3	3769	760	19
3	3782	765	19
3	3794	770	20
3	3813	770	20
3	3833	775	20
3	3844	780	21
3	3861	780	21
3	3874	785	20
3	3892	790	21
3	3905	790	20
3	3927	795	20
3	3940	800	21
3	3955	800	21
3	3975	805	21
3	3988	810	22
3	4008	810	22
3	4024	815	22
3	4037	820	23
3	4056	820	23
3	4071	825	23
3	4080	830	24
3	4094	830	24
3	4117	835	24
3	4129	840	25
3	4146	840	25
3	4164	845	25
3	4171	850	26
3	4184	850	26
3	4200	855	26
3	4213	860	27
3	4231	860	27
3	4248	865	26
3	4267	870	27
3	4282	870	26
3	4302	875	25
3	4315	880	26
3	4328	880	25
3	4345	885	24
3	4361	890	25
3	4374	890	25
3	4403	895	25
3	4416	900	26
3	4435	900	26
3	4445	905	25
3	4459	910	26
3	4472	910	25
3	4491	915	25
3	4509	920	26
3	4529	920	26
3	4546	925	26
3	4559	930	27
3	4574	930	27
3	4588	935	27
3	4600	940	28
3	4616	940	28
3	4635	945	28
3	4649	950	29
3	4668	950	29
3	4687	955	29
3	4696	960	30
3	4712	960	30
3	4732	965	30
3	4743	970	31
3	4758	970	30
3	4778	975	29
3	4797	980	30
3	4810	980	30
3	4835	985	30
3	4845	990	31
3	4864	990	31
3	4888	995	31
3	4897	1000	32
3	4918	1000	32
3	4934	1005	32
3	4941	1010	33
3	4952	1010	32
3	4967	1015	31
3	4984	1020	32
3	4995	1020	32
3	5024	1025	32
3	5033	1030	33
3	5052	1030	33
3	5071	1035	32
3	5087	1040	33
3	5102	1040	32
3	5119	1045	32
3	5131	1050	33
3	5144	1050	33
3	5157	1055	33
3	5169	1060	34
3	5186	1060	34
3	5206	1065	34
3	5219	1070	35
3	5234	1070	34
3	5253	1075	34
3	5267	1080	35
3	5284	1080	35
3	5301	1085	35
3	5314	1090	36
3	5333	1090	36
3	5353	1095	36
3	5364	1100	37
3	5384	1100	37
3	5403	1105	36
3	5415	1110	37
3	5430	1110	36
3	5450	1115	35
3	5467	1120	36
3	5482	1120	35
3	5507	1125	35
3	5521	1130	36
3	5536	1130	36
3	5553	1135	36
3	5563	1140	37
3	5580	1140	37
3	5597	1145	37
3	5609	1150	38
3	5626	1150	38
3	5639	1155	37
3	5657	1160	38
3	5670	1160	37
3	5693	1165	36
3	5715	1170	37
3	5727	1170	37
3	5747	1175	37
3	5756	1180	38
3	5771	1180	38
3	5791	1185	38
3	5803	1190	39
3	5816	1190	39
3	5828	1195	39
3	5840	1200	40
3	5857	1200	40
3	5883	1205	40
3	5893	1210	41
3	5916	1210	41
3	5940	1215	41
3	5947	1220	42
3	5964	1220	42
3	5977	1225	42
3	5990	1230	43
3	6003	1230	42
3	6024	1235	41
3	6043	1240	42
3	6056	1240	41
3	6082	1245	41
3	6101	1250	42
3	6121	1250	42
3	6138	1255	42
3	6150	1260	43
3	6169	1260	43
3	6192	1265	43
3	6200	1270	44
3	6216	1270	44
3	6231	1275	43
3	6247	1280	44
3	6258	1280	43
3	6282	1285	42
3	6307	1290	43
3	6317	1290	43
3	6344	1295	43
3	6356	1300	44
3	6376	1300	44
3	6397	1305	44
3	6407	1310	45
3	6424	1310	45
3	6443	1315	45
3	6457	1320	46
3	6478	1320	46
3	6499	1325	46
3	6510	1330	47
3	6530	1330	47
3	6552	1335	47
3	6561	1340	48
3	6579	1340	48
3	6601	1345	48
3	6612	1350	49
3	6628	1350	49
3	6646	1355	49
3	6658	1360	50
3	6673	1360	49
3	6690	1365	48
3	6708	1370	49
3	6720	1370	49
3	6751	1375	49
3	6761	1380	50
3	6782	1380	50
3	6801	1385	50
3	6813	1390	51
3	6832	1390	51
3	6847	1395	51
3	6859	1400	52
3	6872	1400	51
3	6892	1405	50
3	6911	1410	51
3	6924	1410	50
3	6947	1415	49
3	6965	1420	50
3	6974	1420	49
3	6995	1425	48
3	7015	1430	49
3	7024	1430	49
3	7051	1435	49
3	7062	1440	50
3	7082	1440	50
3	7106	1445	50
3	7116	1450	51
3	7135	1450	51
3	7159	1455	50
3	7178	1460	51
3	7195	1460	50
3	7215	1465	49
3	7231	1470	50
3	7244	1470	49
3	7264	1475	48
3	7282	1480	49
3	7293	1480	49
3	7316	1485	49
3	7330	1490	50
3	7349	1490	50
3	7367	1495	50
3	7379	1500	51
3	7397	1500	51
3	7412	1505	50
3	7428	1510	51
3	7443	1510	50
3	7464	1515	49
3	7480	1520	50
3	7490	1520	49
3	7507	1525	49
3	7526	1530	50
3	7545	1530	50
3	7564	1535	50
3	7575	1540	51
3	7593	1540	51
3	7611	1545	50
3	7628	1550	51
3	7644	1550	50
3	7663	1555	49
3	7674	1560	50
3	7683	1560	49
3	7698	1565	48
3	7719	1570	49
3	7728	1570	48
3	7743	1575	47
3	7761	1580	48
3	7770	1580	48
3	7799	1585	48
3	7811	1590	49
3	7833	1590	49
3	7856	1595	49
3	7868	1600	50
3	7889	1600	50
3	7909	1605	50
3	7922	1610	51
3	7939	1610	50
3	7958	1615	49
3	7974	1620	50
3	7989	1620	49
3	8012	1625	48
3	8033	1630	49
3	8047	1630	48
3	8063	1635	47
3	8078	1640	48
3	8087	1640	47
3	8105	1645	46
3	8127	1650	47
3	8136	1650	47
3	8167	1655	47
3	8179	1660	48
3	8201	1660	48
3	8222	1665	48
3	8232	1670	49
3	8248	1670	49
3	8265	1675	49
3	8277	1680	50
3	8295	1680	50
3	8312	1685	50
3	8323	1690	51
3	8340	1690	51
3	8356	1695	51
3	8367	1700	52
3	8386	1700	52
3	8408	1705	52
3	8420	1710	53
3	8442	1710	53
3	8462	1715	52
3	8475	1720	53
3	8491	1720	53
3	8515	1725	53
3	8527	1730	54
3	8549	1730	54
3	8572	1735	54
3	8582	1740	55
3	8602	1740	55
3	8617	1745	54
3	8630	1750	55
3	8643	1750	54
3	8663	1755	54
3	8679	1760	55
3	8699	1760	55
3	8721	1765	55
3	8732	1770	56
3	8747	1770	55
3	8764	1775	54
3	8780	1780	55
3	8791	1780	54
3	8810	1785	53
3	8826	1790	54
3	8835	1790	53
3	8854	1795	52
3	8872	1800	53
3	8881	1800	52
3	8901	1805	51
3	8918	1810	52
3	8927	1810	51
3	8946	1815	50
3	8970	1820	51
3	8979	1820	50
3	9000	1825	49
3	9023	1830	50
3	9032	1830	50
3	9059	1835	50
3	9071	1840	51
3	9091	1840	51
3	9114	1845	51
3	9124	1850	52
3	9141	1850	51
3	9161	1855	50
3	9177	1860	51
3	9190	1860	50
3	9214	1865	49
3	9233	1870	50
3	9245	1870	50
3	9270	1875	50
3	9280	1880	51
3	9299	1880	51
3	9318	1885	51
3	9329	1890	52
3	9349	1890	52
3	9374	1895	51
3	9391	1900	52
3	9411	1900	51
3	9435	1905	50
3	9450	1910	51
3	9467	1910	50
3	9491	1915	49
3	9509	1920	50
3	9524	1920	49
3	9543	1925	48
3	9561	1930	49
3	9572	1930	48
3	9593	1935	47
3	9614	1940	48
3	9625	1940	47
3	9648	1945	46
3	9671	1950	47
3	9680	1950	46
3	9701	1955	46
3	9720	1960	47
3	9738	1960	47
3	9757	1965	47
3	9770	1970	48
3	9789	1970	47
3	9812	1975	46
3	9827	1980	47
3	9845	1980	46
3	9863	1985	45
3	9874	1990	46
3	9885	1990	45
3	9901	1995	44
3	9918	2000	45
3	9929	2000	45
3	9950	2005	45
3	9961	2010	46
3	9976	2010	46
3	9999	2015	46
3	10013	2020	47
3	10029	2020	47
3	10046	2025	47
3	10058	2030	48
3	10076	2030	48
3	10099	2035	48
3	10109	2040	49
3	10124	2040	48
3	10141	2045	47
3	10160	2050	48
3	10172	2050	47
3	10190	2055	46
3	10211	2060	47
3	10222	2060	46
3	10243	2065	45
3	10263	2070	46
3	10272	2070	45
3	10294	2075	44
3	10318	2080	45
3	10327	2080	44
3	10351	2085	43
3	10378	2090	44
3	10387	2090	43
3	10410	2095	42
3	10431	2100	43
3	10440	2100	43
3	10459	2105	43
3	10470	2110	44
3	10485	2110	44
3	10506	2115	44
3	10520	2120	45
3	10543	2120	45
3	10562	2125	45
3	10573	2130	46
3	10590	2130	45
3	10607	2135	44
3	10621	2140	45
3	10636	2140	44
3	10654	2145	43
3	10671	2150	44
3	10682	2150	43
3	10702	2155	43
3	10719	2160	44
3	10737	2160	44
3	10762	2165	44
3	10773	2170	45
3	10793	2170	45
3	10811	2175	44
3	10823	2180	45
3	10836	2180	44
3	10849	2185	43
3	10867	2190	44
3	10878	2190	43
3	10903	2195	43
3	10918	2200	44
3	10933	2200	44
3	10950	2205	44
3	10961	2210	45
3	10977	2210	45
3	10999	2215	45
3	11009	2220	46
3	11027	2220	46
3	11046	2225	45
3	11063	2230	46
3	11079	2230	46
3	11107	2235	46
3	11115	2240	47
3	11134	2240	47
3	11153	2245	47
3	11164	2250	48
3	11185	2250	48
3	11210	2255	48
3	11224	2260	49
3	11246	2260	48
3	11271	2265	47
3	11287	2270	48
3	11308	2270	47
3	11335	2275	46
3	11350	2280	47
3	11366	2280	46
3	11380	2285	45
3	11395	2290	46
3	11407	2290	45
3	11423	2295	44
3	11441	2300	45
3	11452	2300	45
3	11481	2305	45
3	11493	2310	46
3	11514	2310	46
3	11536	2315	46
3	11545	2320	47
3	11563	2320	47
3	11582	2325	47
3	11596	2330	48
3	11614	2330	48
3	11632	2335	48
3	11645	2340	49
3	11662	2340	49
3	11671	2345	49
3	11683	2350	50
3	11699	2350	50
3	11715	2355	50
3	11724	2360	51
3	11733	2360	51
3	11748	2365	51
3	11761	2370	52
3	11776	2370	52
3	11793	2375	52
3	11807	2380	53
3	11826	2380	53
3	11850	2385	53
3	11864	2390	54
3	11887	2390	54
3	11906	2395	54
3	11916	2400	55
3	11934	2400	55
3	11954	2405	55
3	11965	2410	56
3	11979	2410	56
3	11995	2415	56
3	12007	2420	57
3	12026	2420	57
3	12047	2425	57
3	12060	2430	58
3	12081	2430	58
3	12107	2435	58
3	12118	2440	59
3	12140	2440	59
3	12160	2445	59
3	12169	2450	60
3	12187	2450	60
3	12208	2455	60
3	12221	2460	61
3	12239	2460	61
3	12256	2465	61
3	12269	2470	62
3	12286	2470	62
3	12303	2475	62
3	12314	2480	63
3	12333	2480	63
3	12353	2485	63
3	12361	2490	64
3	12378	2490	64
3	12402	2495	64
3	12414	2500	65
3	12435	2500	65
3	12462	2505	65
3	12473	2510	66
3	12493	2510	66
3	12511	2515	66
3	12521	2520	67
3	12540	2520	67
3	12558	2525	67
3	12568	2530	68
3	12586	2530	68
3	12606	2535	68
3	12616	2540	69
3	12634	2540	69
3	12654	2545	69
3	12663	2550	70
3	12680	2550	70
3	12698	2555	70
3	12708	2560	71
3	12725	2560	71
3	12743	2565	71
3	12756	2570	72
3	12777	2570	72
3	12801	2575	72
3	12809	2580	73
3	12827	2580	73
3	12844	2585	73
3	12855	2590	74
3	12873	2590	74
3	12892	2595	74
3	12906	2600	75
3	12930	2600	75
3	12954	2605	75
3	12962	2610	76
3	12978	2610	76
3	12998	2615	76
3	13009	2620	77
3	13027	2620	77
3	13053	2625	77
3	13064	2630	78
3	13085	2630	78
3	13103	2635	78
3	13112	2640	79
3	13129	2640	79
3	13146	2645	79
3	13157	2650	80
3	13175	2650	80
3	13200	2655	80
3	13212	2660	81
3	13233	2660	81
3	13254	2665	81
3	13264	2670	82
3	13284	2670	82
3	13305	2675	82
3	13317	2680	83
3	13339	2680	83
3	13364	2685	83
3	13371	2690	84
3	13389	2690	84
3	13408	2695	84
3	13418	2700	85
3	13432	2700	85
3	13444	2705	85
3	13456	2710	86
3	13471	2710	86
3	13489	2715	86
3	13496	2720	87
3	13508	2720	87
3	13524	2725	87
3	13538	2730	88
3	13556	2730	88
3	13574	2735	88
3	13586	2740	89
3	13606	2740	89
3	13631	2745	89
3	13640	2750	90
3	13658	2750	90
3	13676	2755	90
3	13688	2760	91
3	13707	2760	91
3	13728	2765	91
3	13738	2770	92
3	13756	2770	92
3	13781	2775	92
3	13793	2780	93
3	13812	2780	93
3	13826	2785	93
3	13838	2790	94
3	13856	2790	94
3	13887	2795	94
3	13898	2800	95
3	13918	2800	95
3	13929	2805	95
3	13941	2810	96
3	13956	2810	96
3	13979	2815	96
3	13992	2820	97
3	14010	2820	97
3	14029	2825	97
3	14039	2830	98
3	14055	2830	98
3	14068	2835	98
3	14080	2840	99
3	14096	2840	99
3	14122	2845	99
3	14133	2850	100
3	14155	2850	100
3	14178	2855	100
3	14190	2860	101
3	14212	2860	101
3	14230	2865	101
3	14238	2870	102
3	14255	2870	102
3	14277	2875	102
3	14289	2880	103
3	14308	2880	103
3	14326	2885	103
3	14338	2890	104
3	14358	2890	104
3	14386	2895	104
3	14394	2900	105
3	14415	2900	105
3	14434	2905	105
3	14442	2910	106
3	14457	2910	106
3	14468	2915	106
3	14479	2920	107
3	14494	2920	107
3	14521	2925	107
3	14530	2930	108
3	14550	2930	108
3	14571	2935	108
3	14583	2940	109
3	14602	2940	109
3	14619	2945	109
3	14631	2950	110
3	14646	2950	110
3	14662	2955	110
3	14672	2960	111
3	14689	2960	111
3	14709	2965	111
3	14719	2970	112
3	14738	2970	112
3	14759	2975	112
3	14770	2980	113
3	14791	2980	113
3	14813	2985	113
3	14822	2990	114
3	14842	2990	114
3	14863	2995	114
3	14875	3000	115
3	14896	3000	115
3	14922	3005	115
3	14934	3010	116
3	14955	3010	116
3	14972	3015	116
3	14983	3020	117
3	15001	3020	117
3	15020	3025	117
3	15032	3030	118
3	15052	3030	118
3	15074	3035	118
3	15084	3040	119
3	15105	3040	119
3	15128	3045	119
3	15140	3050	120
3	15162	3050	120
3	15181	3055	120
3	15191	3060	121
3	15209	3060	121
3	15231	3065	121
3	15243	3070	122
3	15265	3070	122
3	15291	3075	122
3	15302	3080	123
3	15324	3080	123
3	15343	3085	123
3	15354	3090	124
3	15374	3090	124
3	15393	3095	124
3	15403	3100	125
3	15422	3100	125
3	15444	3105	125
3	15454	3110	126
3	15472	3110	126
3	15487	3115	126
3	15495	3120	127
3	15508	3120	127
3	15523	3125	127
3	15534	3130	128
3	15546	3130	128
3	15564	3135	128
3	15577	3140	129
3	15595	3140	129
3	15617	3145	129
3	15628	3150	130
3	15646	3150	130
3	15666	3155	130
3	15679	3160	131
3	15701	3160	131
3	15718	3165	131
3	15726	3170	132
3	15741	3170	132
3	15757	3175	132
3	15767	3180	133
3	15783	3180	133
3	15804	3185	133
3	15813	3190	134
3	15829	3190	134
3	15844	3195	134
3	15854	3200	135
3	15869	3200	135
3	15886	3205	135
3	15899	3210	136
3	15918	3210	136
3	15940	3215	136
3	15951	3220	137
3	15969	3220	137
3	15984	3225	137
3	15997	3230	138
3	16015	3230	138
3	16033	3235	138
3	16045	3240	139
3	16064	3240	139
3	16086	3245	139
3	16096	3250	140
3	16114	3250	140
3	16133	3255	140
3	16146	3260	141
3	16167	3260	141
3	16190	3265	141
3	16204	3270	142
3	16229	3270	142
3	16252	3275	142
3	16260	3280	143
3	16278	3280	143
3	16297	3285	143
3	16310	3290	144
3	16332	3290	144
3	16355	3295	144
3	16365	3300	145
3	16382	3300	145
3	16401	3305	145
3	16413	3310	146
3	16431	3310	146
3	16450	3315	146
3	16461	3320	147
3	16480	3320	147
3	16495	3325	147
3	16507	3330	148
3	16527	3330	148
3	16552	3335	148
3	16562	3340	149
3	16583	3340	149
3	16605	3345	149
3	16614	3350	150
3	16633	3350	150
3	16655	3355	150
3	16665	3360	151
3	16684	3360	151
3	16699	3365	151
3	16709	3370	152
3	16726	3370	152
3	16751	3375	152
3	16762	3380	153
3	16781	3380	153
3	16798	3385	153
3	16812	3390	154
3	16833	3390	154
3	16859	3395	154
3	16871	3400	155
3	16892	3400	155
3	16913	3405	155
3	16921	3410	156
3	16936	3410	156
3	16953	3415	156
3	16966	3420	157
3	16983	3420	157
3	17003	3425	157
3	17015	3430	158
3	17033	3430	158
3	17049	3435	158
3	17059	3440	159
3	17076	3440	159
3	17094	3445	159
3	17104	3450	160
3	17122	3450	160
3	17147	3455	160
3	17159	3460	161
3	17180	3460	161
3	17198	3465	161
3	17207	3470	162
3	17223	3470	162
3	17243	3475	162
3	17254	3480	163
3	17272	3480	163
3	17300	3485	163
3	17310	3490	164
3	17329	3490	164
3	17340	3495	164
3	17351	3500	165
3	17366	3500	165
3	17377	3505	165
3	17389	3510	166
3	17405	3510	166
3	17424	3515	166
3	17434	3520	167
3	17452	3520	167
3	17471	3525	167
3	17483	3530	168
3	17503	3530	168
3	17527	3535	168
3	17537	3540	169
3	17556	3540	169
3	17581	3545	169
3	17591	3550	170
3	17611	3550	170
3	17630	3555	170
3	17641	3560	171
3	17662	3560	171
3	17683	3565	171
3	17694	3570	172
3	17717	3570	172
3	17740	3575	172
3	17749	3580	173
3	17767	3580	173
3	17787	3585	173
3	17799	3590	174
3	17816	3590	174
3	17835	3595	174
3	17846	3600	175
3	17862	3600	175
4	5	5	0
4	15	10	1
4	26	10	1
4	49	15	1
4	62	20	2
4	73	20	2
4	97	25	2
4	106	30	3
4	121	30	3
4	149	35	3
4	156	40	4
4	170	40	4
4	191	45	3
4	209	50	4
4	219	50	3
4	241	55	2
4	259	60	3
4	267	60	2
4	285	65	1
4	305	70	2
4	313	70	1
4	335	75	1
4	359	80	2
4	379	80	2
4	403	85	2
4	414	90	3
4	434	90	3
4	454	95	2
4	466	100	3
4	478	100	2
4	497	105	1
4	516	110	2
4	526	110	1
4	549	115	1
4	566	120	2
4	582	120	2
4	603	125	2
4	613	130	3
4	630	130	3
4	655	135	3
4	668	140	4
4	684	140	3
4	704	145	3
4	717	150	4
4	732	150	4
4	752	155	4
4	762	160	5
4	772	160	4
4	792	165	4
4	808	170	5
4	822	170	5
4	842	175	5
4	854	180	6
4	872	180	6
4	894	185	5
4	911	190	6
4	924	190	5
4	943	195	4
4	963	200	5
4	971	200	4
4	991	205	3
4	1011	210	4
4	1019	210	3
4	1041	215	2
4	1066	220	3
4	1074	220	2
4	1098	225	1
4	1121	230	2
4	1129	230	1
4	1147	235	0
4	1167	240	1
4	1181	240	1
4	1203	245	1
4	1218	250	2
4	1235	250	2
4	1252	255	2
4	1261	260	3
4	1276	260	3
4	1289	265	3
4	1303	270	4
4	1317	270	4
4	1333	275	4
4	1345	280	5
4	1355	280	4
4	1376	285	3
4	1398	290	4
4	1406	290	3
4	1423	295	2
4	1444	300	3
4	1452	300	3
4	1479	305	3
4	1494	310	4
4	1515	310	4
4	1534	315	4
4	1546	320	5
4	1562	320	4
4	1585	325	3
4	1604	330	4
4	1618	330	3
4	1643	335	2
4	1661	340	3
4	1671	340	3
4	1694	345	3
4	1709	350	4
4	1728	350	4
4	1747	355	4
4	1757	360	5
4	1769	360	4
4	1788	365	3
4	1807	370	4
4	1816	370	3
4	1835	375	3
4	1849	380	4
4	1862	380	4
4	1880	385	4
4	1892	390	5
4	1907	390	5
4	1927	395	5
4	1940	400	6
4	1961	400	6
4	1983	405	6
4	1995	410	7
4	2013	410	7
4	2035	415	7
4	2044	420	8
4	2061	420	8
4	2080	425	8
4	2090	430	9
4	2107	430	9
4	2130	435	9
4	2138	440	10
4	2155	440	10
4	2174	445	10
4	2186	450	11
4	2200	450	10
4	2223	455	9
4	2243	460	10
4	2256	460	9
4	2278	465	8
4	2295	470	9
4	2307	470	8
4	2325	475	7
4	2341	480	8
4	2351	480	7
4	2370	485	7
4	2390	490	8
4	2409	490	8
4	2426	495	8
4	2434	500	9
4	2447	500	9
4	2466	505	9
4	2477	510	10
4	2494	510	10
4	2510	515	10
4	2522	520	11
4	2538	520	11
4	2558	525	11
4	2570	530	12
4	2582	530	11
4	2598	535	10
4	2618	540	11
4	2628	540	10
4	2649	545	9
4	2671	550	10
4	2681	550	9
4	2705	555	8
4	2728	560	9
4	2738	560	8
4	2755	565	7
4	2772	570	8
4	2782	570	7
4	2804	575	7
4	2827	580	8
4	2847	580	8
4	2864	585	8
4	2876	590	9
4	2895	590	9
4	2916	595	9
4	2932	600	10
4	2953	600	10
4	2970	605	10
4	2980	610	11
4	2996	610	11
4	3014	615	11
4	3026	620	12
4	3040	620	11
4	3061	625	10
4	3078	630	11
4	3090	630	11
4	3114	635	11
4	3126	640	12
4	3143	640	12
4	3158	645	11
4	3172	650	12
4	3184	650	11
4	3204	655	10
4	3227	660	11
4	3239	660	10
4	3261	665	9
4	3279	670	10
4	3288	670	9
4	3302	675	8
4	3320	680	9
4	3328	680	8
4	3349	685	7
4	3373	690	8
4	3381	690	7
4	3405	695	7
4	3428	700	8
4	3448	700	8
4	3465	705	8
4	3477	710	9
4	3496	710	9
4	3518	715	8
4	3537	720	9
4	3554	720	8
4	3579	725	8
4	3596	730	9
4	3614	730	9
4	3631	735	9
4	3646	740	10
4	3660	740	10
4	3685	745	10
4	3698	750	11
4	3722	750	11
4	3745	755	11
4	3753	760	12
4	3766	760	12
4	3783	765	12
4	3795	770	13
4	3814	770	13
4	3834	775	13
4	3845	780	14
4	3862	780	14
4	3876	785	13
4	3893	790	14
4	3907	790	13
4	3928	795	13
4	3941	800	14
4	3956	800	14
4	3976	805	14
4	3989	810	15
4	4009	810	15
4	4027	815	15
4	4038	820	16
4	4051	820	15
4	4067	825	15
4	4081	830	16
4	4095	830	16
4	4118	835	16
4	4130	840	17
4	4147	840	17
4	4160	845	16
4	4172	850	17
4	4180	850	16
4	4194	855	15
4	4214	860	16
4	4222	860	15
4	4242	865	14
4	4268	870	15
4	4276	870	14
4	4297	875	13
4	4316	880	14
4	4324	880	13
4	4341	885	12
4	4362	890	13
4	4370	890	12
4	4390	895	11
4	4417	900	12
4	4425	900	12
4	4448	905	12
4	4460	910	13
4	4475	910	13
4	4494	915	12
4	4510	920	13
4	4521	920	12
4	4539	925	11
4	4560	930	12
4	4570	930	12
4	4589	935	12
4	4601	940	13
4	4617	940	13
4	4636	945	13
4	4650	950	14
4	4664	950	13
4	4681	955	12
4	4697	960	13
4	4707	960	12
4	4726	965	12
4	4744	970	13
4	4760	970	13
4	4782	975	13
4	4798	980	14
4	4813	980	14
4	4836	985	14
4	4846	990	15
4	4865	990	15
4	4889	995	15
4	4898	1000	16
4	4914	1000	15
4	4931	1005	15
4	4942	1010	16
4	4955	1010	16
4	4970	1015	16
4	4985	1020	17
4	5002	1020	17
4	5017	1025	16
4	5034	1030	17
4	5044	1030	16
4	5065	1035	15
4	5088	1040	16
4	5098	1040	16
4	5125	1045	16
4	5132	1050	17
4	5145	1050	17
4	5158	1055	17
4	5170	1060	18
4	5178	1060	17
4	5196	1065	16
4	5220	1070	17
4	5228	1070	17
4	5259	1075	17
4	5268	1080	18
4	5285	1080	18
4	5302	1085	18
4	5315	1090	19
4	5334	1090	19
4	5348	1095	18
4	5365	1100	19
4	5379	1100	18
4	5399	1105	17
4	5416	1110	18
4	5426	1110	17
4	5446	1115	16
4	5468	1120	17
4	5478	1120	16
4	5503	1125	15
4	5522	1130	16
4	5531	1130	15
4	5545	1135	14
4	5564	1140	15
4	5572	1140	14
4	5589	1145	13
4	5610	1150	14
4	5618	1150	14
4	5646	1155	14
4	5658	1160	15
4	5677	1160	15
4	5699	1165	14
4	5716	1170	15
4	5730	1170	14
4	5743	1175	14
4	5757	1180	15
4	5772	1180	15
4	5792	1185	15
4	5804	1190	16
4	5818	1190	16
4	5829	1195	16
4	5841	1200	17
4	5851	1200	16
4	5871	1205	15
4	5894	1210	16
4	5904	1210	15
4	5929	1215	15
4	5948	1220	16
4	5965	1220	16
4	5978	1225	16
4	5991	1230	17
4	6011	1230	17
4	6032	1235	17
4	6044	1240	18
4	6066	1240	18
4	6089	1245	17
4	6102	1250	18
4	6117	1250	18
4	6139	1255	18
4	6151	1260	19
4	6170	1260	19
4	6188	1265	18
4	6201	1270	19
4	6211	1270	18
4	6228	1275	18
4	6248	1280	19
4	6269	1280	19
4	6295	1285	19
4	6308	1290	20
4	6329	1290	20
4	6345	1295	20
4	6357	1300	21
4	6373	1300	20
4	6394	1305	20
4	6408	1310	21
4	6425	1310	21
4	6444	1315	21
4	6458	1320	22
4	6479	1320	22
4	6500	1325	22
4	6511	1330	23
4	6527	1330	22
4	6547	1335	21
4	6562	1340	22
4	6574	1340	21
4	6594	1345	20
4	6613	1350	21
4	6623	1350	21
4	6647	1355	21
4	6659	1360	22
4	6676	1360	22
4	6697	1365	22
4	6709	1370	23
4	6726	1370	23
4	6752	1375	23
4	6762	1380	24
4	6778	1380	23
4	6796	1385	22
4	6814	1390	23
4	6827	1390	23
4	6848	1395	23
4	6860	1400	24
4	6877	1400	24
4	6899	1405	24
4	6912	1410	25
4	6933	1410	25
4	6954	1415	25
4	6966	1420	26
4	6984	1420	26
4	7006	1425	26
4	7016	1430	27
4	7032	1430	27
4	7045	1435	26
4	7063	1440	27
4	7075	1440	26
4	7097	1445	25
4	7117	1450	26
4	7127	1450	25
4	7151	1455	24
4	7179	1460	25
4	7189	1460	25
4	7221	1465	25
4	7232	1470	26
4	7252	1470	26
4	7271	1475	26
4	7283	1480	27
4	7300	1480	27
4	7314	1485	26
4	7331	1490	27
4	7344	1490	26
4	7362	1495	25
4	7380	1500	26
4	7391	1500	26
4	7415	1505	26
4	7429	1510	27
4	7449	1510	27
4	7470	1515	27
4	7481	1520	28
4	7496	1520	28
4	7509	1525	27
4	7527	1530	28
4	7535	1530	27
4	7555	1535	26
4	7576	1540	27
4	7584	1540	27
4	7613	1545	27
4	7629	1550	28
4	7651	1550	28
4	7668	1555	28
4	7675	1560	29
4	7687	1560	29
4	7702	1565	28
4	7720	1570	29
4	7731	1570	28
4	7745	1575	27
4	7762	1580	28
4	7771	1580	28
4	7800	1585	28
4	7812	1590	29
4	7834	1590	29
4	7857	1595	29
4	7869	1600	30
4	7890	1600	30
4	7910	1605	30
4	7923	1610	31
4	7941	1610	30
4	7960	1615	29
4	7975	1620	30
4	7991	1620	29
4	8014	1625	28
4	8034	1630	29
4	8049	1630	28
4	8065	1635	27
4	8079	1640	28
4	8089	1640	27
4	8107	1645	26
4	8128	1650	27
4	8137	1650	26
4	8156	1655	25
4	8180	1660	26
4	8188	1660	25
4	8214	1665	25
4	8233	1670	26
4	8249	1670	26
4	8266	1675	26
4	8278	1680	27
4	8292	1680	26
4	8310	1685	26
4	8324	1690	27
4	8341	1690	27
4	8357	1695	27
4	8368	1700	28
4	8387	1700	28
4	8404	1705	27
4	8421	1710	28
4	8435	1710	27
4	8455	1715	26
4	8476	1720	27
4	8486	1720	26
4	8506	1725	25
4	8528	1730	26
4	8538	1730	25
4	8561	1735	24
4	8583	1740	25
4	8591	1740	25
4	8620	1745	25
4	8631	1750	26
4	8648	1750	26
4	8667	1755	26
4	8680	1760	27
4	8694	1760	26
4	8715	1765	26
4	8733	1770	27
4	8752	1770	27
4	8770	1775	27
4	8781	1780	28
4	8798	1780	28
4	8817	1785	28
4	8827	1790	29
4	8842	1790	29
4	8858	1795	28
4	8873	1800	29
4	8883	1800	28
4	8903	1805	28
4	8919	1810	29
4	8935	1810	29
4	8957	1815	29
4	8971	1820	30
4	8991	1820	30
4	9011	1825	30
4	9024	1830	31
4	9040	1830	31
4	9060	1835	31
4	9072	1840	32
4	9092	1840	32
4	9115	1845	32
4	9125	1850	33
4	9144	1850	33
4	9163	1855	32
4	9178	1860	33
4	9192	1860	32
4	9216	1865	32
4	9234	1870	33
4	9252	1870	33
4	9271	1875	33
4	9281	1880	34
4	9300	1880	34
4	9319	1885	34
4	9330	1890	35
4	9350	1890	35
4	9376	1895	34
4	9392	1900	35
4	9413	1900	35
4	9441	1905	35
4	9451	1910	36
4	9472	1910	36
4	9495	1915	35
4	9510	1920	36
4	9528	1920	35
4	9546	1925	34
4	9562	1930	35
4	9574	1930	34
4	9595	1935	33
4	9615	1940	34
4	9627	1940	33
4	9650	1945	32
4	9672	1950	33
4	9682	1950	32
4	9702	1955	31
4	9721	1960	32
4	9729	1960	31
4	9748	1965	30
4	9771	1970	31
4	9779	1970	30
4	9802	1975	29
4	9828	1980	30
4	9836	1980	30
4	9866	1985	30
4	9875	1990	31
4	9889	1990	31
4	9907	1995	31
4	9919	2000	32
4	9934	2000	32
4	9949	2005	32
4	9962	2010	33
4	9977	2010	33
4	10000	2015	33
4	10014	2020	34
4	10032	2020	34
4	10047	2025	34
4	10059	2030	35
4	10077	2030	35
4	10100	2035	35
4	10110	2040	36
4	10128	2040	36
4	10148	2045	36
4	10161	2050	37
4	10178	2050	37
4	10197	2055	37
4	10212	2060	38
4	10232	2060	38
4	10252	2065	38
4	10264	2070	39
4	10283	2070	39
4	10307	2075	39
4	10319	2080	40
4	10340	2080	40
4	10365	2085	40
4	10379	2090	41
4	10401	2090	41
4	10421	2095	41
4	10432	2100	42
4	10447	2100	42
4	10460	2105	42
4	10471	2110	43
4	10481	2110	42
4	10498	2115	41
4	10521	2120	42
4	10531	2120	41
4	10552	2125	40
4	10574	2130	41
4	10583	2130	40
4	10601	2135	39
4	10622	2140	40
4	10630	2140	39
4	10650	2145	39
4	10672	2150	40
4	10690	2150	40
4	10709	2155	40
4	10720	2160	41
4	10738	2160	41
4	10757	2165	40
4	10774	2170	41
4	10789	2170	41
4	10814	2175	41
4	10824	2180	42
4	10840	2180	42
4	10853	2185	42
4	10868	2190	43
4	10889	2190	43
4	10909	2195	43
4	10919	2200	44
4	10934	2200	44
4	10951	2205	44
4	10962	2210	45
4	10978	2210	45
4	11000	2215	45
4	11010	2220	46
4	11028	2220	46
4	11049	2225	46
4	11064	2230	47
4	11080	2230	46
4	11100	2235	45
4	11116	2240	46
4	11126	2240	45
4	11145	2245	44
4	11165	2250	45
4	11175	2250	44
4	11198	2255	43
4	11225	2260	44
4	11235	2260	44
4	11275	2265	44
4	11288	2270	45
4	11312	2270	45
4	11340	2275	45
4	11351	2280	46
4	11370	2280	46
4	11383	2285	46
4	11396	2290	47
4	11409	2290	47
4	11430	2295	47
4	11442	2300	48
4	11457	2300	48
4	11482	2305	48
4	11494	2310	49
4	11515	2310	49
4	11535	2315	49
4	11546	2320	50
4	11564	2320	50
4	11586	2325	50
4	11597	2330	51
4	11615	2330	51
4	11633	2335	51
4	11646	2340	52
4	11663	2340	52
4	11672	2345	52
4	11684	2350	53
4	11700	2350	53
4	11716	2355	53
4	11725	2360	54
4	11737	2360	54
4	11749	2365	54
4	11762	2370	55
4	11777	2370	55
4	11794	2375	55
4	11808	2380	56
4	11827	2380	56
4	11851	2385	56
4	11865	2390	57
4	11888	2390	57
4	11907	2395	57
4	11917	2400	58
4	11935	2400	58
4	11951	2405	57
4	11966	2410	58
4	11978	2410	58
4	11996	2415	58
4	12008	2420	59
4	12027	2420	59
4	12048	2425	59
4	12061	2430	60
4	12079	2430	59
4	12100	2435	58
4	12119	2440	59
4	12133	2440	58
4	12152	2445	57
4	12170	2450	58
4	12180	2450	57
4	12201	2455	56
4	12222	2460	57
4	12232	2460	57
4	12257	2465	57
4	12270	2470	58
4	12287	2470	58
4	12304	2475	58
4	12315	2480	59
4	12329	2480	58
4	12348	2485	58
4	12362	2490	59
4	12379	2490	59
4	12403	2495	59
4	12415	2500	60
4	12436	2500	60
4	12463	2505	60
4	12474	2510	61
4	12491	2510	60
4	12507	2515	59
4	12522	2520	60
4	12536	2520	59
4	12554	2525	58
4	12569	2530	59
4	12579	2530	58
4	12599	2535	58
4	12617	2540	59
4	12635	2540	59
4	12655	2545	59
4	12664	2550	60
4	12681	2550	60
4	12699	2555	60
4	12709	2560	61
4	12726	2560	61
4	12740	2565	60
4	12757	2570	61
4	12771	2570	60
4	12794	2575	60
4	12810	2580	61
4	12828	2580	61
4	12845	2585	61
4	12856	2590	62
4	12874	2590	62
4	12893	2595	62
4	12907	2600	63
4	12923	2600	62
4	12947	2605	62
4	12963	2610	63
4	12981	2610	63
4	12999	2615	63
4	13010	2620	64
4	13028	2620	64
4	13047	2625	63
4	13065	2630	64
4	13079	2630	63
4	13098	2635	62
4	13113	2640	63
4	13123	2640	62
4	13140	2645	61
4	13158	2650	62
4	13168	2650	61
4	13189	2655	60
4	13213	2660	61
4	13223	2660	61
4	13255	2665	61
4	13265	2670	62
4	13285	2670	62
4	13306	2675	62
4	13318	2680	63
4	13340	2680	63
4	13360	2685	62
4	13372	2690	63
4	13386	2690	62
4	13405	2695	61
4	13419	2700	62
4	13430	2700	62
4	13445	2705	62
4	13457	2710	63
4	13472	2710	63
4	13485	2715	63
4	13497	2720	64
4	13509	2720	64
4	13525	2725	64
4	13539	2730	65
4	13557	2730	65
4	13571	2735	64
4	13587	2740	65
4	13601	2740	64
4	13624	2745	63
4	13641	2750	64
4	13654	2750	64
4	13677	2755	64
4	13689	2760	65
4	13708	2760	65
4	13726	2765	64
4	13739	2770	65
4	13751	2770	64
4	13772	2775	63
4	13794	2780	64
4	13804	2780	64
4	13827	2785	64
4	13839	2790	65
4	13857	2790	65
4	13878	2795	64
4	13899	2800	65
4	13912	2800	65
4	13930	2805	65
4	13942	2810	66
4	13957	2810	66
4	13980	2815	66
4	13993	2820	67
4	14011	2820	67
4	14025	2825	67
4	14040	2830	68
4	14056	2830	68
4	14069	2835	68
4	14081	2840	69
4	14093	2840	68
4	14114	2845	67
4	14134	2850	68
4	14146	2850	67
4	14169	2855	66
4	14191	2860	67
4	14202	2860	66
4	14222	2865	65
4	14239	2870	66
4	14249	2870	65
4	14268	2875	64
4	14290	2880	65
4	14300	2880	64
4	14319	2885	63
4	14339	2890	64
4	14349	2890	63
4	14373	2895	62
4	14395	2900	63
4	14403	2900	62
4	14424	2905	62
4	14443	2910	63
4	14458	2910	63
4	14469	2915	63
4	14480	2920	64
4	14495	2920	64
4	14513	2925	63
4	14531	2930	64
4	14543	2930	63
4	14564	2935	62
4	14584	2940	63
4	14594	2940	63
4	14620	2945	63
4	14632	2950	64
4	14647	2950	64
4	14663	2955	64
4	14673	2960	65
4	14690	2960	65
4	14705	2965	64
4	14720	2970	65
4	14734	2970	64
4	14755	2975	63
4	14771	2980	64
4	14785	2980	63
4	14806	2985	62
4	14823	2990	63
4	14835	2990	62
4	14856	2995	61
4	14876	3000	62
4	14888	3000	61
4	14912	3005	60
4	14935	3010	61
4	14946	3010	61
4	14973	3015	61
4	14984	3020	62
4	15002	3020	62
4	15021	3025	62
4	15033	3030	63
4	15053	3030	63
4	15071	3035	62
4	15085	3040	63
4	15099	3040	62
4	15121	3045	61
4	15141	3050	62
4	15154	3050	61
4	15174	3055	60
4	15192	3060	61
4	15202	3060	60
4	15222	3065	59
4	15244	3070	60
4	15254	3070	59
4	15278	3075	58
4	15303	3080	59
4	15312	3080	59
4	15344	3085	59
4	15355	3090	60
4	15375	3090	60
4	15394	3095	60
4	15404	3100	61
4	15418	3100	60
4	15438	3105	59
4	15455	3110	60
4	15466	3110	60
4	15488	3115	60
4	15496	3120	61
4	15509	3120	61
4	15524	3125	61
4	15535	3130	62
4	15547	3130	62
4	15565	3135	62
4	15578	3140	63
4	15591	3140	63
4	15618	3145	63
4	15629	3150	64
4	15649	3150	64
4	15667	3155	64
4	15680	3160	65
4	15697	3160	65
4	15719	3165	65
4	15727	3170	66
4	15742	3170	66
4	15758	3175	66
4	15768	3180	67
4	15784	3180	67
4	15805	3185	67
4	15814	3190	68
4	15830	3190	68
4	15845	3195	68
4	15855	3200	69
4	15870	3200	69
4	15887	3205	69
4	15900	3210	70
4	15919	3210	70
4	15941	3215	70
4	15952	3220	71
4	15970	3220	71
4	15985	3225	71
4	15998	3230	72
4	16016	3230	72
4	16030	3235	71
4	16046	3240	72
4	16060	3240	71
4	16081	3245	70
4	16097	3250	71
4	16109	3250	70
4	16128	3255	69
4	16147	3260	70
4	16159	3260	69
4	16182	3265	68
4	16205	3270	69
4	16217	3270	68
4	16242	3275	68
4	16261	3280	69
4	16279	3280	69
4	16298	3285	69
4	16311	3290	70
4	16333	3290	70
4	16356	3295	70
4	16366	3300	71
4	16383	3300	71
4	16398	3305	70
4	16414	3310	71
4	16426	3310	70
4	16442	3315	69
4	16462	3320	70
4	16471	3320	69
4	16487	3325	68
4	16508	3330	69
4	16516	3330	68
4	16539	3335	67
4	16563	3340	68
4	16571	3340	67
4	16595	3345	66
4	16615	3350	67
4	16623	3350	66
4	16643	3355	65
4	16666	3360	66
4	16674	3360	65
4	16691	3365	64
4	16710	3370	65
4	16718	3370	64
4	16739	3375	64
4	16763	3380	65
4	16782	3380	65
4	16799	3385	65
4	16813	3390	66
[...]
47	12555	2525	585
47	12580	2530	580
47	12741	2565	605
47	12772	2570	600
47	12924	2600	620
47	13048	2625	635
47	13080	2630	630
47	13099	2635	625
47	13124	2640	620
47	13141	2645	615
47	13169	2650	610
47	13190	2655	605
47	13361	2685	625
47	13387	2690	620
47	13406	2695	615
47	13572	2735	645
47	13602	2740	640
47	13625	2745	635
47	13727	2765	645
47	13752	2770	640
47	13773	2775	635
47	13879	2795	645
47	14094	2840	680
47	14115	2845	675
47	14147	2850	670
47	14170	2855	665
47	14203	2860	660
47	14223	2865	655
47	14250	2870	650
47	14269	2875	645
47	14301	2880	640
47	14320	2885	635
47	14350	2890	630
47	14374	2895	625
47	14404	2900	620
47	14514	2925	635
47	14544	2930	630
47	14565	2935	625
47	14706	2965	645
47	14735	2970	640
47	14756	2975	635
47	14786	2980	630
47	14807	2985	625
47	14836	2990	620
47	14857	2995	615
47	14889	3000	610
47	14913	3005	605
47	15072	3035	625
47	15100	3040	620
47	15122	3045	615
47	15155	3050	610
47	15175	3055	605
47	15203	3060	600
47	15223	3065	595
47	15255	3070	590
47	15279	3075	585
47	15419	3100	600
47	15439	3105	595
47	16031	3235	715
47	16061	3240	710
47	16082	3245	705
47	16110	3250	700
47	16129	3255	695
47	16160	3260	690
47	16183	3265	685
47	16218	3270	680
47	16399	3305	705
47	16427	3310	700
47	16443	3315	695
47	16472	3320	690
47	16488	3325	685
47	16517	3330	680
47	16540	3335	675
47	16572	3340	670
47	16596	3345	665
47	16624	3350	660
47	16644	3355	655
47	16675	3360	650
47	16692	3365	645
47	16719	3370	640
47	17120	3450	710
47	17141	3455	705
47	17172	3460	700
47	17191	3465	695
47	17217	3470	690
47	17235	3475	685
47	17264	3480	680
47	17287	3485	675
47	17579	3545	725
47	17609	3550	720
47	17628	3555	715
47	17655	3560	710
47	17676	3565	705
47	17708	3570	700
47	17730	3575	695
48	192	45	1
48	220	50	1
48	242	55	1
48	268	60	1
48	286	65	0
48	314	70	0
48	455	95	1
48	479	100	1
48	498	105	0
48	527	110	0
48	685	140	1
48	773	160	1
48	895	185	1
48	925	190	1
48	944	195	1
48	972	200	1
48	992	205	1
48	1020	210	1
48	1042	215	1
48	1075	220	1
48	1099	225	0
48	1130	230	0
48	1148	235	0
48	1356	280	1
48	1377	285	1
48	1407	290	1
48	1424	295	1
48	1563	320	1
48	1586	325	1
48	1619	330	1
48	1644	335	1
48	1770	360	1
48	1789	365	1
48	1817	370	1
48	2201	450	1
48	2224	455	1
48	2257	460	1
48	2279	465	1
48	2308	470	1
48	2326	475	1
48	2352	480	1
48	2583	530	1
48	2599	535	1
48	2629	540	1
48	2650	545	1
48	2682	550	1
48	2706	555	1
48	2739	560	1
48	2756	565	1
48	2783	570	1
48	3041	620	1
48	3062	625	1
48	3159	645	1
48	3185	650	1
48	3205	655	1
48	3240	660	1
48	3262	665	1
48	3289	670	1
48	3303	675	1
48	3329	680	1
48	3350	685	1
48	3382	690	1
48	3519	715	1
48	3555	720	1
48	3877	785	1
48	3908	790	1
48	4052	820	1
48	4161	845	1
48	4181	850	1
48	4195	855	1
48	4223	860	1
48	4243	865	1
48	4277	870	1
48	4298	875	1
48	4325	880	1
48	4342	885	1
48	4371	890	1
48	4391	895	1
48	4495	915	1
48	4522	920	1
48	4540	925	1
48	4665	950	1
48	4682	955	1
48	4708	960	1
48	4915	1000	1
48	5018	1025	1
48	5045	1030	1
48	5066	1035	1
48	5179	1060	1
48	5197	1065	1
48	5349	1095	1
48	5380	1100	1
48	5400	1105	1
48	5427	1110	1
48	5447	1115	1
48	5479	1120	1
48	5504	1125	1
48	5532	1130	1
48	5546	1135	1
48	5573	1140	1
48	5590	1145	1
48	5700	1165	1
48	5731	1170	1
48	5852	1200	1
48	5872	1205	1
48	5905	1210	1
48	6090	1245	1
48	6189	1265	1
48	6212	1270	1
48	6374	1300	1
48	6528	1330	1
48	6548	1335	1
48	6575	1340	1
48	6595	1345	1
48	6779	1380	1
48	6797	1385	1
48	7046	1435	1
48	7076	1440	1
48	7098	1445	1
48	7128	1450	1
48	7152	1455	1
48	7315	1485	1
48	7345	1490	1
48	7363	1495	1
48	7510	1525	1
48	7536	1530	1
48	7556	1535	1
48	7703	1565	1
48	7732	1570	1
48	7746	1575	1
48	7942	1610	1
48	7961	1615	1
48	7992	1620	1
48	8015	1625	1
48	8050	1630	1
48	8066	1635	1
48	8090	1640	1
48	8108	1645	1
48	8138	1650	1
48	8157	1655	1
48	8189	1660	1
48	8293	1680	1
48	8405	1705	1
48	8436	1710	1
48	8456	1715	1
48	8487	1720	1
48	8507	1725	1
48	8539	1730	1
48	8562	1735	1
48	8695	1760	1
48	8859	1795	1
48	8884	1800	1
48	9164	1855	1
48	9193	1860	1
48	9377	1895	1
48	9496	1915	1
48	9529	1920	1
48	9547	1925	1
48	9575	1930	1
48	9596	1935	1
48	9628	1940	1
48	9651	1945	1
48	9683	1950	1
48	9703	1955	1
48	9730	1960	1
48	9749	1965	1
48	9780	1970	1
48	9803	1975	1
48	10482	2110	1
48	10499	2115	1
48	10532	2120	1
48	10553	2125	1
48	10584	2130	1
48	10602	2135	1
48	10631	2140	1
48	10758	2165	1
48	11081	2230	1
48	11101	2235	1
48	11127	2240	1
48	11146	2245	1
48	11176	2250	1
48	11199	2255	1
48	11952	2405	1
48	12080	2430	1
48	12101	2435	1
48	12134	2440	1
48	12153	2445	1
48	12181	2450	1
48	12202	2455	1
48	12330	2480	1
48	12492	2510	1
48	12508	2515	1
48	12537	2520	1
48	12555	2525	1
48	12580	2530	1
48	12741	2565	1
48	12772	2570	1
48	12924	2600	1
48	13048	2625	1
48	13080	2630	1
48	13099	2635	1
48	13124	2640	1
48	13141	2645	1
48	13169	2650	1
48	13190	2655	1
48	13361	2685	1
48	13387	2690	1
48	13406	2695	1
48	13572	2735	1
48	13602	2740	1
48	13625	2745	1
48	13727	2765	1
48	13752	2770	1
48	13773	2775	1
48	13879	2795	1
48	14094	2840	1
48	14115	2845	1
48	14147	2850	1
48	14170	2855	1
48	14203	2860	1
48	14223	2865	1
48	14250	2870	1
48	14269	2875	1
48	14301	2880	1
48	14320	2885	1
48	14350	2890	1
48	14374	2895	1
48	14404	2900	1
48	14514	2925	1
48	14544	2930	1
48	14565	2935	1
48	14706	2965	1
48	14735	2970	1
48	14756	2975	1
48	14786	2980	1
48	14807	2985	1
48	14836	2990	1
48	14857	2995	1
48	14889	3000	1
48	14913	3005	1
48	15072	3035	1
48	15100	3040	1
48	15122	3045	1
48	15155	3050	1
48	15175	3055	1
48	15203	3060	1
48	15223	3065	1
48	15255	3070	1
48	15279	3075	1
48	15419	3100	1
48	15439	3105	1
48	16031	3235	1
48	16061	3240	1
48	16082	3245	1
48	16110	3250	1
48	16129	3255	1
48	16160	3260	1
48	16183	3265	1
48	16218	3270	1
48	16399	3305	1
48	16427	3310	1
48	16443	3315	1
48	16472	3320	1
48	16488	3325	1
48	16517	3330	1
48	16540	3335	1
48	16572	3340	1
48	16596	3345	1
48	16624	3350	1
48	16644	3355	1
48	16675	3360	1
48	16692	3365	1
48	16719	3370	1
48	17120	3450	1
48	17141	3455	1
48	17172	3460	1
48	17191	3465	1
48	17217	3470	1
48	17235	3475	1
48	17264	3480	1
48	17287	3485	1
48	17579	3545	1
48	17609	3550	1
48	17628	3555	1
48	17655	3560	1
48	17676	3565	1
48	17708	3570	1
48	17730	3575	1
49	194	45	1
49	222	50	1
49	402	85	1
49	429	90	1
49	533	110	1
49	553	115	1
49	575	120	1
49	594	125	1
49	622	130	1
49	643	135	1
49	775	160	1
49	1458	300	1
49	1475	305	1
49	1590	325	1
49	1623	330	1
49	1647	335	1
49	1673	340	1
49	1689	345	1
49	1719	350	1
49	1877	385	1
49	1904	390	1
49	1920	395	1
49	1951	400	1
49	1976	405	1
49	2004	410	1
49	2025	415	1
49	2053	420	1
49	2071	425	1
49	2099	430	1
49	2119	435	1
49	2147	440	1
49	2166	445	1
49	2195	450	1
49	2218	455	1
49	2252	460	1
49	2275	465	1
49	2304	470	1
49	2460	505	1
49	2488	510	1
49	2506	515	1
49	2533	520	1
49	2552	525	1
49	2690	550	1
49	2712	555	1
49	2809	575	1
49	2918	595	1
49	3093	630	1
49	3109	635	1
49	3211	655	1
49	3245	660	1
49	3265	665	1
49	3560	720	1
49	3583	725	1
49	3680	745	1
49	3713	750	1
49	3830	775	1
49	3973	805	1
49	4002	810	1
49	4376	890	1
49	4395	895	1
49	4614	940	1
49	4632	945	1
49	4815	980	1
49	4830	985	1
49	4859	990	1
49	4880	995	1
49	4909	1000	1
49	4998	1020	1
49	5015	1025	1
49	5043	1030	1
49	5064	1035	1
49	5097	1040	1
49	5203	1065	1
49	5550	1135	1
49	5577	1140	1
49	5594	1145	1
49	5768	1180	1
49	5785	1185	1
49	5938	1215	1
49	6263	1280	1
49	6287	1285	1
49	6321	1290	1
49	6338	1295	1
49	6368	1300	1
49	6390	1305	1
49	6419	1310	1
49	6599	1345	1
49	6747	1375	1
49	6775	1380	1
49	6793	1385	1
49	6956	1415	1
49	6981	1420	1
49	7001	1425	1
49	7028	1430	1
49	7044	1435	1
49	7074	1440	1
49	7249	1470	1
49	7268	1475	1
49	7395	1500	1
49	7411	1505	1
49	7442	1510	1
49	7795	1585	1
49	7827	1590	1
49	7850	1595	1
49	7884	1600	1
49	7905	1605	1
49	8092	1640	1
49	8110	1645	1
49	8225	1665	1
49	8246	1670	1
49	8263	1675	1
49	8291	1680	1
49	8309	1685	1
49	8440	1710	1
49	8600	1740	1
49	8750	1770	1
49	8990	1820	1
49	9009	1825	1
49	9039	1830	1
49	9055	1835	1
49	9085	1840	1
49	9221	1865	1
49	9248	1870	1
49	9263	1875	1
49	9292	1880	1
49	9311	1885	1
49	9341	1890	1
49	9365	1895	1
49	9403	1900	1
49	9429	1905	1
49	9462	1910	1
49	9486	1915	1
49	9658	1945	1
49	9688	1950	1
49	10074	2030	1
49	10093	2035	1
49	10231	2060	1
49	10249	2065	1
49	10277	2070	1
49	10299	2075	1
49	10332	2080	1
49	10356	2085	1
49	10392	2090	1
49	10415	2095	1
49	10883	2190	1
49	10996	2215	1
49	11021	2220	1
49	11041	2225	1
49	11074	2230	1
49	11274	2265	1
49	11311	2270	1
49	11428	2295	1
49	11455	2300	1
49	11472	2305	1
49	11505	2310	1
49	11612	2330	1
49	11628	2335	1
49	11886	2390	1
49	11905	2395	1
49	11932	2400	1
49	12105	2435	1
49	12138	2440	1
49	12156	2445	1
49	12183	2450	1
49	12204	2455	1
49	12234	2460	1
49	12251	2465	1
49	12280	2470	1
49	12296	2475	1
49	12324	2480	1
49	12344	2485	1
49	12371	2490	1
49	12391	2495	1
49	12424	2500	1
49	12584	2530	1
49	12603	2535	1
49	12630	2540	1
49	12649	2545	1
49	12675	2550	1
49	12692	2555	1
49	12799	2575	1
49	12823	2580	1
49	12928	2600	1
49	12950	2605	1
49	12975	2610	1
49	12992	2615	1
49	13021	2620	1
49	13042	2625	1
49	13074	2630	1
49	13095	2635	1
49	13122	2640	1
49	13139	2645	1
49	13167	2650	1
49	13188	2655	1
49	13222	2660	1
49	13244	2665	1
49	13274	2670	1
49	13295	2675	1
49	13327	2680	1
49	13352	2685	1
49	13381	2690	1
49	13401	2695	1
49	13428	2700	1
49	13441	2705	1
49	13628	2745	1
49	13656	2750	1
49	13672	2755	1
49	13702	2760	1
49	13881	2795	1
49	13914	2800	1
49	13926	2805	1
49	13953	2810	1
49	13972	2815	1
49	14003	2820	1
49	14021	2825	1
49	14210	2860	1
49	14384	2895	1
49	14412	2900	1
49	14431	2905	1
49	14601	2940	1
49	14618	2945	1
49	14645	2950	1
49	14658	2955	1
49	14682	2960	1
49	14700	2965	1
49	14729	2970	1
49	14750	2975	1
49	14780	2980	1
49	14802	2985	1
49	14832	2990	1
49	14853	2995	1
49	14885	3000	1
49	14909	3005	1
49	14944	3010	1
49	14965	3015	1
49	14993	3020	1
49	15012	3025	1
49	15042	3030	1
49	15064	3035	1
49	15094	3040	1
49	15116	3045	1
49	15150	3050	1
49	15172	3055	1
49	15201	3060	1
49	15221	3065	1
49	15253	3070	1
49	15277	3075	1
49	15612	3145	1
49	15781	3180	1
49	15939	3215	1
49	15966	3220	1
49	15982	3225	1
49	16010	3230	1
49	16027	3235	1
49	16057	3240	1
49	16226	3270	1
49	16250	3275	1
49	16276	3280	1
49	16295	3285	1
49	16326	3290	1
49	16349	3295	1
49	16379	3300	1
49	16397	3305	1
49	16425	3310	1
49	16441	3315	1
49	16549	3335	1
49	16580	3340	1
49	16832	3390	1
49	16856	3395	1
49	16889	3400	1
49	16909	3405	1
49	16935	3410	1
49	16952	3415	1
49	16980	3420	1
49	17363	3500	1
49	17374	3505	1
49	17399	3510	1
49	17418	3515	1
49	17444	3520	1
49	17463	3525	1
49	17493	3530	1
49	17516	3535	1
49	17547	3540	1
49	17570	3545	1
49	17601	3550	1
49	17714	3570	1
49	17736	3575	1
49	17763	3580	1
49	17780	3585	1
49	17810	3590	1
49	17827	3595	1
49	17856	3600	1
50	194	45	35
50	222	50	30
50	402	85	55
50	429	90	50
50	533	110	60
50	553	115	55
50	575	120	50
50	594	125	45
50	622	130	40
50	643	135	35
50	775	160	50
50	1458	300	180
50	1475	305	175
50	1590	325	185
50	1623	330	180
50	1647	335	175
50	1673	340	170
50	1689	345	165
50	1719	350	160
50	1877	385	185
50	1904	390	180
50	1920	395	175
50	1951	400	170
50	1976	405	165
50	2004	410	160
50	2025	415	155
50	2053	420	150
50	2071	425	145
50	2099	430	140
50	2119	435	135
50	2147	440	130
50	2166	445	125
50	2195	450	120
50	2218	455	115
50	2252	460	110
50	2275	465	105
50	2304	470	100
50	2460	505	125
50	2488	510	120
50	2506	515	115
50	2533	520	110
50	2552	525	105
50	2690	550	120
50	2712	555	115
50	2809	575	125
50	2918	595	135
50	3093	630	160
50	3109	635	155
50	3211	655	165
50	3245	660	160
50	3265	665	155
50	3560	720	200
50	3583	725	195
50	3680	745	205
50	3713	750	200
50	3830	775	215
50	3973	805	235
50	4002	810	230
50	4376	890	300
50	4395	895	295
50	4614	940	330
50	4632	945	325
50	4815	980	350
50	4830	985	345
50	4859	990	340
50	4880	995	335
50	4909	1000	330
50	4998	1020	340
50	5015	1025	335
50	5043	1030	330
50	5064	1035	325
50	5097	1040	320
50	5203	1065	335
50	5550	1135	395
50	5577	1140	390
50	5594	1145	385
50	5768	1180	410
50	5785	1185	405
50	5938	1215	425
50	6263	1280	480
50	6287	1285	475
50	6321	1290	470
50	6338	1295	465
50	6368	1300	460
50	6390	1305	455
50	6419	1310	450
50	6599	1345	475
50	6747	1375	495
50	6775	1380	490
50	6793	1385	485
50	6956	1415	505
50	6981	1420	500
50	7001	1425	495
50	7028	1430	490
50	7044	1435	485
50	7074	1440	480
50	7249	1470	500
50	7268	1475	495
50	7395	1500	510
50	7411	1505	505
50	7442	1510	500
50	7795	1585	565
50	7827	1590	560
50	7850	1595	555
50	7884	1600	550
50	7905	1605	545
50	8092	1640	570
50	8110	1645	565
50	8225	1665	575
50	8246	1670	570
50	8263	1675	565
50	8291	1680	560
50	8309	1685	555
50	8440	1710	570
50	8600	1740	590
50	8750	1770	610
50	8990	1820	650
50	9009	1825	645
50	9039	1830	640
50	9055	1835	635
50	9085	1840	630
50	9221	1865	645
50	9248	1870	640
50	9263	1875	635
50	9292	1880	630
50	9311	1885	625
50	9341	1890	620
50	9365	1895	615
50	9403	1900	610
50	9429	1905	605
50	9462	1910	600
50	9486	1915	595
50	9658	1945	615
50	9688	1950	610
50	10074	2030	680
50	10093	2035	675
50	10231	2060	690
50	10249	2065	685
50	10277	2070	680
50	10299	2075	675
50	10332	2080	670
50	10356	2085	665
50	10392	2090	660
50	10415	2095	655
50	10883	2190	740
50	10996	2215	755
50	11021	2220	750
50	11041	2225	745
50	11074	2230	740
50	11274	2265	765
50	11311	2270	760
50	11428	2295	775
50	11455	2300	770
50	11472	2305	765
50	11505	2310	760
50	11612	2330	770
50	11628	2335	765
50	11886	2390	810
50	11905	2395	805
50	11932	2400	800
50	12105	2435	825
50	12138	2440	820
50	12156	2445	815
50	12183	2450	810
50	12204	2455	805
50	12234	2460	800
50	12251	2465	795
50	12280	2470	790
50	12296	2475	785
50	12324	2480	780
50	12344	2485	775
50	12371	2490	770
50	12391	2495	765
50	12424	2500	760
50	12584	2530	780
50	12603	2535	775
50	12630	2540	770
50	12649	2545	765
50	12675	2550	760
50	12692	2555	755
50	12799	2575	765
50	12823	2580	760
50	12928	2600	770
50	12950	2605	765
50	12975	2610	760
50	12992	2615	755
50	13021	2620	750
50	13042	2625	745
50	13074	2630	740
50	13095	2635	735
50	13122	2640	730
50	13139	2645	725
50	13167	2650	720
50	13188	2655	715
50	13222	2660	710
50	13244	2665	705
50	13274	2670	700
50	13295	2675	695
50	13327	2680	690
50	13352	2685	685
50	13381	2690	680
50	13401	2695	675
50	13428	2700	670
50	13441	2705	665
50	13628	2745	695
50	13656	2750	690
50	13672	2755	685
50	13702	2760	680
50	13881	2795	705
50	13914	2800	700
50	13926	2805	695
50	13953	2810	690
50	13972	2815	685
50	14003	2820	680
50	14021	2825	675
50	14210	2860	700
50	14384	2895	725
50	14412	2900	720
50	14431	2905	715
50	14601	2940	740
50	14618	2945	735
50	14645	2950	730
50	14658	2955	725
50	14682	2960	720
50	14700	2965	715
50	14729	2970	710
50	14750	2975	705
50	14780	2980	700
50	14802	2985	695
50	14832	2990	690
50	14853	2995	685
50	14885	3000	680
50	14909	3005	675
50	14944	3010	670
50	14965	3015	665
50	14993	3020	660
50	15012	3025	655
50	15042	3030	650
50	15064	3035	645
50	15094	3040	640
50	15116	3045	635
50	15150	3050	630
50	15172	3055	625
50	15201	3060	620
50	15221	3065	615
50	15253	3070	610
50	15277	3075	605
50	15612	3145	665
50	15781	3180	690
50	15939	3215	715
50	15966	3220	710
50	15982	3225	705
50	16010	3230	700
50	16027	3235	695
50	16057	3240	690
50	16226	3270	710
50	16250	3275	705
50	16276	3280	700
50	16295	3285	695
50	16326	3290	690
50	16349	3295	685
50	16379	3300	680
50	16397	3305	675
50	16425	3310	670
50	16441	3315	665
50	16549	3335	675
50	16580	3340	670
50	16832	3390	710
50	16856	3395	705
50	16889	3400	700
50	16909	3405	695
50	16935	3410	690
50	16952	3415	685
50	16980	3420	680
50	17363	3500	750
50	17374	3505	745
50	17399	3510	740
50	17418	3515	735
50	17444	3520	730
50	17463	3525	725
50	17493	3530	720
50	17516	3535	715
50	17547	3540	710
50	17570	3545	705
50	17601	3550	700
50	17714	3570	710
50	17736	3575	705
50	17763	3580	700
50	17780	3585	695
50	17810	3590	690
50	17827	3595	685
50	17856	3600	680
51	194	45	1
51	222	50	1
51	402	85	1
51	429	90	1
51	533	110	1
51	553	115	1
51	575	120	1
51	594	125	1
51	622	130	1
51	643	135	1
51	775	160	1
51	1458	300	1
51	1475	305	1
51	1590	325	1
51	1623	330	1
51	1647	335	1
51	1673	340	1
51	1689	345	1
51	1719	350	1
51	1877	385	1
51	1904	390	1
51	1920	395	1
51	1951	400	1
51	1976	405	1
51	2004	410	1
51	2025	415	1
51	2053	420	1
51	2071	425	1
51	2099	430	1
51	2119	435	1
51	2147	440	1
51	2166	445	1
51	2195	450	1
51	2218	455	1
51	2252	460	1
51	2275	465	1
51	2304	470	1
51	2460	505	1
51	2488	510	1
51	2506	515	1
51	2533	520	1
51	2552	525	1
51	2690	550	1
51	2712	555	1
51	2809	575	1
51	2918	595	1
51	3093	630	1
51	3109	635	1
51	3211	655	1
51	3245	660	1
51	3265	665	1
51	3560	720	1
51	3583	725	1
51	3680	745	1
51	3713	750	1
51	3830	775	1
51	3973	805	1
51	4002	810	1
51	4376	890	1
51	4395	895	1
51	4614	940	1
51	4632	945	1
51	4815	980	1
51	4830	985	1
51	4859	990	1
51	4880	995	1
51	4909	1000	1
51	4998	1020	1
51	5015	1025	1
51	5043	1030	1
51	5064	1035	1
51	5097	1040	1
51	5203	1065	1
51	5550	1135	1
51	5577	1140	1
51	5594	1145	1
51	5768	1180	1
51	5785	1185	1
51	5938	1215	1
51	6263	1280	1
51	6287	1285	1
51	6321	1290	1
51	6338	1295	1
51	6368	1300	1
51	6390	1305	1
51	6419	1310	1
51	6599	1345	1
51	6747	1375	1
51	6775	1380	1
51	6793	1385	1
51	6956	1415	1
51	6981	1420	1
51	7001	1425	1
51	7028	1430	1
51	7044	1435	1
51	7074	1440	1
51	7249	1470	1
51	7268	1475	1
51	7395	1500	1
51	7411	1505	1
51	7442	1510	1
51	7795	1585	1
51	7827	1590	1
51	7850	1595	1
51	7884	1600	1
51	7905	1605	1
51	8092	1640	1
51	8110	1645	1
51	8225	1665	1
51	8246	1670	1
51	8263	1675	1
51	8291	1680	1
51	8309	1685	1
51	8440	1710	1
51	8600	1740	1
51	8750	1770	1
51	8990	1820	1
51	9009	1825	1
51	9039	1830	1
51	9055	1835	1
51	9085	1840	1
51	9221	1865	1
51	9248	1870	1
51	9263	1875	1
51	9292	1880	1
51	9311	1885	1
51	9341	1890	1
51	9365	1895	1
51	9403	1900	1
51	9429	1905	1
51	9462	1910	1
51	9486	1915	1
51	9658	1945	1
51	9688	1950	1
51	10074	2030	1
51	10093	2035	1
51	10231	2060	1
51	10249	2065	1
51	10277	2070	1
51	10299	2075	1
51	10332	2080	1
51	10356	2085	1
51	10392	2090	1
51	10415	2095	1
51	10883	2190	1
51	10996	2215	1
51	11021	2220	1
51	11041	2225	1
51	11074	2230	1
51	11274	2265	1
51	11311	2270	1
51	11428	2295	1
51	11455	2300	1
51	11472	2305	1
51	11505	2310	1
51	11612	2330	1
51	11628	2335	1
51	11886	2390	1
51	11905	2395	1
51	11932	2400	1
51	12105	2435	1
51	12138	2440	1
51	12156	2445	1
51	12183	2450	1
51	12204	2455	1
51	12234	2460	1
51	12251	2465	1
51	12280	2470	1
51	12296	2475	1
51	12324	2480	1
51	12344	2485	1
51	12371	2490	1
51	12391	2495	1
51	12424	2500	1
51	12584	2530	1
51	12603	2535	1
51	12630	2540	1
51	12649	2545	1
51	12675	2550	1
51	12692	2555	1
51	12799	2575	1
51	12823	2580	1
51	12928	2600	1
51	12950	2605	1
51	12975	2610	1
51	12992	2615	1
51	13021	2620	1
51	13042	2625	1
51	13074	2630	1
51	13095	2635	1
51	13122	2640	1
51	13139	2645	1
51	13167	2650	1
51	13188	2655	1
51	13222	2660	1
51	13244	2665	1
51	13274	2670	1
51	13295	2675	1
51	13327	2680	1
51	13352	2685	1
51	13381	2690	1
51	13401	2695	1
51	13428	2700	1
51	13441	2705	1
51	13628	2745	1
51	13656	2750	1
51	13672	2755	1
51	13702	2760	1
51	13881	2795	1
51	13914	2800	1
51	13926	2805	1
51	13953	2810	1
51	13972	2815	1
51	14003	2820	1
51	14021	2825	1
51	14210	2860	1
51	14384	2895	1
51	14412	2900	1
51	14431	2905	1
51	14601	2940	1
51	14618	2945	1
51	14645	2950	1
51	14658	2955	1
51	14682	2960	1
51	14700	2965	1
51	14729	2970	1
51	14750	2975	1
51	14780	2980	1
51	14802	2985	1
51	14832	2990	1
51	14853	2995	1
51	14885	3000	1
51	14909	3005	1
51	14944	3010	1
51	14965	3015	1
51	14993	3020	1
51	15012	3025	1
51	15042	3030	1
51	15064	3035	1
51	15094	3040	1
51	15116	3045	1
51	15150	3050	1
51	15172	3055	1
51	15201	3060	1
51	15221	3065	1
51	15253	3070	1
51	15277	3075	1
51	15612	3145	1
51	15781	3180	1
51	15939	3215	1
51	15966	3220	1
51	15982	3225	1
51	16010	3230	1
51	16027	3235	1
51	16057	3240	1
51	16226	3270	1
51	16250	3275	1
51	16276	3280	1
51	16295	3285	1
51	16326	3290	1
51	16349	3295	1
51	16379	3300	1
51	16397	3305	1
51	16425	3310	1
51	16441	3315	1
51	16549	3335	1
51	16580	3340	1
51	16832	3390	1
51	16856	3395	1
51	16889	3400	1
51	16909	3405	1
51	16935	3410	1
51	16952	3415	1
51	16980	3420	1
51	17363	3500	1
51	17374	3505	1
51	17399	3510	1
51	17418	3515	1
51	17444	3520	1
51	17463	3525	1
51	17493	3530	1
51	17516	3535	1
51	17547	3540	1
51	17570	3545	1
51	17601	3550	1
51	17714	3570	1
51	17736	3575	1
51	17763	3580	1
51	17780	3585	1
51	17810	3590	1
51	17827	3595	1
51	17856	3600	1

