version 2
run DegeneracyTest4-0-20201214-14:41:57-9038
attr configname DegeneracyTest4
attr datetime 20201214-14:41:57
attr experiment DegeneracyTest4
attr inifile omnetpp.ini
attr iterationvars ""
attr iterationvarsf ""
attr measurement ""
attr network slottedNetwork
attr processid 9038
attr repetition 0
attr replication #0
attr resultdir results
attr runnumber 0
attr seedset 0
param **.sendProbability 0
param **.numTransmitters 1
param **.numChannels 1
param **.bufferSize 5
param **.sendProbability 1
param **.expMean 5s
param **.timeSlotSize 5s
param **.thresh 20s
param **.deterministicInterarrivalTime false

vector 0 slottedNetwork.transmitters[0] numPacketCreated:vector ETV
attr source numPacketCreatedSignal
vector 1 slottedNetwork.ch throughput:vector ETV
attr source throughputSignal
vector 2 slottedNetwork.transmitters[0] numPacketDiscarded:vector ETV
attr source numPacketDiscardedSignal
0	1	3.979372522829	1
0	4	8.472174465249	1
0	9	17.770195525622	1
0	12	21.706201225532	1
0	13	24.461443658884	1
0	16	29.346475790851	1
0	19	31.772116609459	1
0	20	33.537912305147	1
0	25	44.655534415329	1
0	28	46.247315119538	1
0	29	49.494546860792	1
0	34	57.339027448907	1
0	37	60.608440285013	1
0	38	63.102800330092	1
0	45	76.094070759337	1
0	46	76.549875889958	1
0	49	81.772938431498	1
0	50	84.069179117774	1
0	55	93.006617434967	1
0	56	93.762771703292	1
0	61	103.964342993001	1
0	64	107.172888856392	1
0	69	115.242899230855	1
0	72	122.825579100806	1
0	73	123.454951147996	1
0	76	129.831089659114	1
0	79	134.192695634325	1
0	82	138.046868926662	1
0	87	145.153692327131	1
0	88	147.83152092827	1
0	91	151.039994438426	1
0	92	152.071010848578	1
0	95	159.512284977336	1
0	98	162.557697093251	1
0	101	166.759370621312	1
0	102	166.854213467317	1
0	103	168.813067520701	1
0	106	173.61997221603	1
0	109	178.354955601905	1
0	112	183.152695488746	1
0	119	197.542270595134	1
0	120	199.76986307039	1
0	123	204.517335987874	1
0	130	216.149091296346	1
0	137	233.650159718619	1
0	138	234.587290048708	1
0	141	235.768323579122	1
0	142	236.458467021264	1
0	145	243.403680470219	1
0	148	248.083988269076	1
0	151	250.049551055596	1
0	152	250.245466837661	1
0	153	253.132088391694	1
0	156	258.161443417527	1
0	163	274.126176627795	1
0	166	279.166272854896	1
0	179	305.966774606112	1
0	180	307.368159648507	1
0	183	312.25248001886	1
0	184	314.314986168472	1
0	185	314.899763217434	1
0	190	320.515604725101	1
0	191	321.259166071362	1
0	194	328.792342737725	1
0	201	343.728292196985	1
0	202	343.796615089139	1
0	203	344.307339496764	1
0	206	349.182849167546	1
0	209	354.781920996316	1
0	218	372.649862858038	1
0	227	391.459499280558	1
0	228	391.560449921289	1
0	229	391.76033141658	1
0	230	394.674723360915	1
0	233	396.336774565734	1
0	234	396.97705839229	1
0	235	399.204155701889	1
0	238	400.960036148796	1
0	239	401.591979330923	1
0	242	407.426346963666	1
0	247	418.047532948674	1
0	248	418.379019956085	1
0	249	419.600997196494	1
0	254	425.49694483182	1
0	259	435.513147444356	1
0	260	439.216942196591	1
0	267	451.644853981475	1
0	268	452.078706393173	1
0	275	465.324986036555	1
0	278	470.829215587009	1
0	279	471.535869154813	1
0	282	476.74477242571	1
0	287	485.951184783145	1
0	288	486.962936975981	1
0	289	489.498937592264	1
0	292	493.91458280206	1
0	293	494.016145096038	1
0	294	494.917406355962	1
0	299	503.746111718027	1
0	300	504.53781924918	1
0	305	510.200989959042	1
0	308	516.283533226225	1
0	309	517.985266917401	1
0	316	534.360982805975	1
0	319	538.65294764512	1
0	322	543.135901999049	1
0	325	547.382006056871	1
0	326	548.644106021327	1
0	331	559.751640513698	1
0	334	562.714760650959	1
0	339	572.082060050245	1
0	340	572.699693287056	1
0	341	574.464793953427	1
0	346	581.748886746248	1
0	347	584.273980485021	1
0	350	589.90039056924	1
0	353	591.33744294959	1
0	354	593.216137161624	1
0	359	603.89028941154	1
0	362	608.329596463724	1
0	365	613.718770884406	1
0	368	617.528109740886	1
0	369	618.838395949263	1
0	372	624.00238100249	1
0	375	626.759360953161	1
0	378	631.421375355194	1
0	379	631.518274261934	1
0	380	634.693912840088	1
0	383	636.488548919437	1
0	386	641.885149912715	1
0	387	643.598148036205	1
0	390	646.016326469152	1
0	393	652.931222501836	1
0	398	663.468460526588	1
0	401	665.239581187815	1
0	402	669.459023550769	1
0	405	671.644163619639	1
0	408	675.656923548432	1
0	409	675.827940640222	1
0	412	681.122987567128	1
0	415	686.402235610427	1
0	416	689.225288116031	1
0	419	690.47569559092	1
0	420	691.237163717192	1
0	421	693.528028136983	1
0	422	694.039631211246	1
0	425	696.901938968388	1
0	430	708.026512254515	1
0	433	711.876896552246	1
0	434	714.847264043865	1
0	437	715.375327262009	1
0	442	727.971737912425	1
0	445	731.139051001038	1
0	450	740.337714926425	1
0	455	750.467259011941	1
0	456	754.016848648061	1
0	459	758.796680767673	1
0	460	759.457599315746	1
0	465	767.006716593793	1
0	470	775.240312100427	1
0	471	775.994267151396	1
0	472	778.608617301838	1
0	473	778.777551229598	1
0	474	779.135928151162	1
0	483	799.385162345185	1
0	488	805.786833364247	1
0	489	808.061392588206	1
0	498	826.611195547725	1
0	501	833.850165957667	1
0	508	848.273224718179	1
0	511	850.346287431474	1
0	512	853.708590015642	1
0	513	853.987940280085	1
0	516	856.057834893448	1
0	517	857.046982430743	1
0	518	857.140459782848	1
0	519	858.078054538862	1
0	524	865.970118149392	1
0	529	876.350273451606	1
0	534	889.51136776435	1
0	537	894.051187900973	1
0	542	901.70534403231	1
0	545	906.562754822785	1
0	548	910.867373006188	1
0	549	912.2257133579	1
0	560	936.621377797868	1
0	565	946.607237635318	1
0	568	953.156164492126	1
0	571	955.025596971642	1
0	572	957.564922585075	1
0	573	958.758686949314	1
0	574	959.936309816407	1
0	577	961.194302881971	1
0	578	962.428599225965	1
0	585	976.873977185459	1
0	588	980.24520003364	1
0	589	981.53526385334	1
0	592	987.240953367637	1
0	593	987.686724817613	1
0	594	987.98562963219	1
0	595	988.27599144277	1
0	598	991.125479269302	1
0	599	992.993828241274	1
0	604	1003.637178713931	1
0	607	1006.009260165596	1
0	608	1006.999098842266	1
0	611	1010.908977446644	1
0	616	1020.550778131043	1
0	619	1026.238470658746	1
0	620	1029.261376750422	1
0	623	1034.913154479975	1
0	626	1039.583456143001	1
0	631	1045.854472493456	1
0	632	1047.076927603671	1
0	635	1050.121092172357	1
0	640	1061.965683026542	1
0	641	1062.070019119593	1
0	642	1063.371776177329	1
0	647	1070.473693455255	1
0	652	1082.212912262402	1
0	655	1086.650421904821	1
0	660	1095.541138588991	1
0	661	1095.541415348467	1
0	666	1105.845521552871	1
0	667	1108.616375698111	1
0	672	1116.614972907311	1
0	675	1122.310261160675	1
0	678	1125.355484224219	1
0	679	1128.657999622965	1
0	680	1129.871592091324	1
0	685	1137.644906780368	1
0	688	1144.207446745196	1
0	691	1145.672204037629	1
0	692	1146.87182163481	1
0	699	1162.657299341888	1
0	702	1168.874053231631	1
0	703	1169.708426437795	1
0	706	1172.472618291054	1
0	707	1174.816000670939	1
0	712	1180.012028853846	1
0	713	1181.638108943727	1
0	714	1182.669898911752	1
0	717	1187.088827191917	1
0	722	1197.059023198302	1
0	725	1202.676325696042	1
0	726	1204.297321263474	1
0	729	1205.00553143745	1
0	732	1211.314594804886	1
0	733	1213.835994471143	1
0	736	1216.946179066549	1
0	741	1226.122496081247	1
0	742	1226.904874933169	1
0	743	1227.80624643106	1
0	746	1231.153949385365	1
0	747	1233.351226337829	1
0	750	1239.753348107723	1
0	751	1239.907979565526	1
0	756	1247.155753447664	1
0	757	1247.641591839499	1
0	762	1259.344051642786	1
0	767	1266.260633973542	1
0	770	1270.651709367133	1
0	777	1286.994191371248	1
0	778	1288.37183105644	1
0	781	1294.026423452383	1
0	782	1294.351987776316	1
0	783	1294.434818248424	1
0	786	1298.490523359564	1
0	787	1298.536938481454	1
0	790	1304.078987252524	1
0	795	1311.768130824907	1
0	798	1317.8465831917	1
0	799	1318.848794167129	1
0	800	1319.179254220596	1
0	803	1322.770486621136	1
0	806	1327.113315278465	1
0	809	1334.85837367424	1
0	812	1339.521432950584	1
0	815	1340.753512061648	1
0	816	1343.789908504745	1
0	819	1345.107794068921	1
0	826	1360.018797446284	1
0	829	1368.046091261623	1
0	832	1373.023409478456	1
0	837	1383.392216793956	1
0	842	1392.699375008866	1
0	845	1397.509434641816	1
0	846	1397.576060865958	1
0	855	1415.874347519783	1
0	864	1435.914095794155	1
0	865	1435.93437740076	1
0	868	1441.035312840534	1
0	869	1443.334269429413	1
0	872	1445.976605570922	1
0	873	1448.771643920877	1
0	878	1457.404810819588	1
0	879	1459.968384032736	1
0	882	1463.548610622704	1
0	883	1464.818667514455	1
0	892	1484.55683385225	1
0	901	1502.601538877169	1
0	904	1505.251346773529	1
0	905	1507.477093470561	1
0	906	1509.503007882273	1
0	909	1512.05296205152	1
0	910	1513.849431577151	1
0	913	1516.46426984543	1
0	914	1517.785622166109	1
0	921	1530.818481177714	1
0	928	1546.09278007275	1
0	929	1549.904898493824	1
0	934	1557.265919283792	1
0	939	1567.987846606359	1
0	940	1568.457219342772	1
0	943	1574.114113180794	1
0	948	1582.428942084165	1
0	951	1585.157230658002	1
0	952	1589.232322312483	1
0	957	1598.080421428533	1
0	960	1604.572649606556	1
0	963	1606.148449750135	1
0	964	1606.85328917221	1
0	967	1611.334935197313	1
0	968	1614.570808717528	1
0	971	1616.365615309411	1
0	972	1617.885473105555	1
0	975	1620.952668553516	1
0	976	1624.670584512397	1
0	981	1630.419291451146	1
0	984	1639.993502739359	1
0	987	1642.834355158071	1
0	992	1651.602928383189	1
0	995	1659.37165589335	1
0	996	1659.664295388083	1
0	1001	1665.058929930581	1
0	1004	1672.600006088716	1
0	1009	1680.11207005727	1
0	1010	1681.094379486754	1
0	1011	1683.434911752928	1
0	1012	1683.797007303501	1
0	1015	1688.22581053365	1
0	1016	1689.818729773045	1
0	1023	1700.949149720254	1
0	1026	1708.501457726374	1
0	1033	1721.463700770291	1
0	1034	1724.838455638557	1
0	1037	1725.238849918277	1
0	1038	1728.89657661394	1
0	1043	1739.612075116089	1
0	1046	1743.920412575065	1
0	1053	1759.944456723124	1
0	1056	1760.124470871871	1
0	1057	1762.938596880957	1
0	1060	1767.003088686885	1
0	1061	1767.874064488756	1
0	1064	1771.715331198093	1
0	1067	1777.434308093687	1
0	1068	1779.06016244613	1
0	1071	1782.93437434365	1
0	1072	1784.904662203385	1
0	1075	1787.398123867735	1
0	1082	1803.062271315468	1
0	1087	1814.778470965931	1
0	1090	1815.262458327472	1
0	1095	1827.332540480012	1
0	1098	1830.400561528717	1
0	1101	1836.840371404097	1
0	1102	1839.386383838429	1
0	1103	1839.876981451573	1
0	1110	1851.596329655566	1
0	1113	1857.609898574713	1
0	1114	1859.595303324815	1
0	1119	1865.893509177934	1
0	1122	1870.94735499343	1
0	1123	1872.319672603448	1
0	1126	1879.602473661327	1
0	1127	1879.651545843318	1
0	1132	1887.609326457284	1
0	1133	1888.934791964318	1
0	1136	1891.998519188637	1
0	1139	1896.468526202037	1
0	1144	1906.218410761271	1
0	1145	1906.731170226289	1
0	1152	1921.900883088277	1
0	1157	1930.496229647219	1
0	1166	1954.913724598945	1
0	1169	1959.870122127742	1
0	1172	1962.411219398006	1
0	1173	1962.735047861955	1
0	1180	1976.538070140371	1
0	1183	1983.042257277671	1
0	1186	1989.820849846921	1
0	1189	1991.654375615891	1
0	1190	1992.292243484877	1
0	1191	1994.487628412816	1
0	1194	1997.421472446216	1
0	1195	1999.907518877929	1
0	1196	1999.989835297853	1
0	1199	2003.784659169096	1
0	1204	2013.11786152	1
0	1211	2026.363802831151	1
0	1218	2040.893400849429	1
0	1219	2043.92056975763	1
0	1220	2044.208534341715	1
0	1223	2046.186362343691	1
0	1224	2047.511037031878	1
0	1225	2048.864658985564	1
0	1228	2053.630271676894	1
0	1229	2053.798441281495	1
0	1232	2057.493041381191	1
0	1235	2061.091265869634	1
0	1238	2066.337976699269	1
0	1241	2070.270772158727	1
0	1242	2070.435792084009	1
0	1243	2071.685546167258	1
0	1246	2076.024855516696	1
0	1249	2083.396966640614	1
0	1252	2085.756807079474	1
0	1253	2089.133586430336	1
0	1254	2089.747161466921	1
0	1263	2109.734978850521	1
0	1274	2132.93637883027	1
0	1277	2138.027466724305	1
0	1280	2141.397183945399	1
0	1289	2164.136303204698	1
0	1294	2172.229608536796	1
0	1295	2173.611134501434	1
0	1298	2179.364447466081	1
0	1301	2181.760510938498	1
0	1304	2186.785177483796	1
0	1309	2199.863382145907	1
0	1312	2202.622392754098	1
0	1315	2206.667291229762	1
0	1316	2208.359021823255	1
0	1321	2217.004620011668	1
0	1322	2219.684113988366	1
0	1325	2222.647401078049	1
0	1334	2240.000626480726	1
0	1335	2240.236122836003	1
0	1338	2246.946221541916	1
0	1339	2249.9270809989	1
0	1342	2252.069619019799	1
0	1347	2260.505710463587	1
0	1348	2262.910101585102	1
0	1357	2280.274380114615	1
0	1358	2280.919572630536	1
0	1369	2305.068173870383	1
0	1376	2320.143015231313	1
0	1379	2325.995193881382	1
0	1380	2326.295835727032	1
0	1385	2338.723991148767	1
0	1390	2349.397503121472	1
0	1393	2350.110017849725	1
0	1394	2352.453996307921	1
0	1395	2354.79838708606	1
0	1398	2356.759193534173	1
0	1401	2362.458170567496	1
0	1406	2370.394956715958	1
0	1407	2373.377706300343	1
0	1410	2375.134312708054	1
0	1415	2385.990442114825	1
0	1416	2387.347791946972	1
0	1419	2394.052300569928	1
0	1422	2398.104766305839	1
0	1423	2399.229978775149	1
0	1426	2404.255557018011	1
0	1431	2414.353479534107	1
0	1434	2416.498038712965	1
0	1435	2416.622679191603	1
0	1438	2422.635465915148	1
0	1445	2439.840186153075	1
0	1448	2442.845959384995	1
0	1449	2443.213491272089	1
0	1452	2447.94399997836	1
0	1455	2453.51629113694	1
0	1458	2456.482943978243	1
0	1461	2462.437851245226	1
0	1462	2464.814549593434	1
0	1465	2469.447742594918	1
0	1468	2471.860618670722	1
0	1473	2483.148002624504	1
0	1474	2483.245449089263	1
0	1477	2487.20349456228	1
0	1478	2488.810196076625	1
0	1479	2489.613846279462	1
0	1482	2494.09911134999	1
0	1489	2505.452661886973	1
0	1490	2509.468345746579	1
0	1499	2528.065387301076	1
0	1502	2530.633815367396	1
0	1503	2532.061659969912	1
0	1508	2543.009893542703	1
0	1509	2544.867972316842	1
0	1512	2546.495055902653	1
0	1517	2557.757520253009	1
0	1520	2564.700906622345	1
0	1523	2566.72953834168	1
0	1528	2579.62510399561	1
0	1531	2580.548183360142	1
0	1536	2592.13581367297	1
0	1539	2595.089989774993	1
0	1540	2595.642569158003	1
0	1541	2599.234398334059	1
0	1544	2601.376603478013	1
0	1547	2608.113847596467	1
0	1550	2613.819064267734	1
0	1553	2618.688457225134	1
0	1556	2624.886947628216	1
0	1559	2626.033533486399	1
0	1560	2628.123991781117	1
0	1563	2633.218757686499	1
0	1566	2637.193121866827	1
0	1567	2638.785086947106	1
0	1570	2642.707870431696	1
0	1571	2644.369173549589	1
0	1576	2654.069414598981	1
0	1581	2660.264597135872	1
0	1582	2663.347562578488	1
0	1585	2665.679047710676	1
0	1586	2669.459878949627	1
0	1589	2673.542842393867	1
0	1592	2675.783282235744	1
0	1593	2679.276187266139	1
0	1596	2681.880081590492	1
0	1597	2682.003149810847	1
0	1598	2684.774492177913	1
0	1601	2686.871888795259	1
0	1604	2691.739251513489	1
0	1605	2693.375303420121	1
0	1614	2710.722272614004	1
0	1617	2715.025846151574	1
0	1620	2720.967491953011	1
0	1623	2726.540546968006	1
0	1630	2741.406588665414	1
0	1633	2746.615810989519	1
0	1636	2751.202169974079	1
0	1639	2755.644813535707	1
0	1646	2772.098057687004	1
0	1649	2778.059636558099	1
0	1654	2786.461048558506	1
0	1657	2791.690175022437	1
0	1658	2791.837834078257	1
0	1661	2799.661116831745	1
0	1664	2800.172625736793	1
0	1665	2803.089926598318	1
0	1676	2826.721902582624	1
0	1677	2829.812164468324	1
0	1680	2831.104460711912	1
0	1681	2833.745180665521	1
0	1684	2837.618249347302	1
0	1689	2848.531818793729	1
0	1692	2853.354317602529	1
0	1693	2854.070561121456	1
0	1696	2856.661700361975	1
0	1699	2860.595115939274	1
0	1702	2865.455360781673	1
0	1703	2867.840349536395	1
0	1710	2880.617938119715	1
0	1715	2893.457601263226	1
0	1718	2895.149806927313	1
0	1719	2895.369443097946	1
0	1724	2907.98453040472	1
0	1725	2908.547180136613	1
0	1726	2909.507658017356	1
0	1729	2911.410212760166	1
0	1730	2912.825574939403	1
0	1737	2928.023232890073	1
0	1738	2928.897784190552	1
0	1741	2933.236559905248	1
0	1744	2937.792288945599	1
0	1745	2939.151618138471	1
0	1752	2951.074694854625	1
0	1755	2956.485204277045	1
0	1756	2959.386652216961	1
0	1759	2964.297843139008	1
0	1762	2966.539489672067	1
0	1767	2978.63474664286	1
0	1768	2978.836854531126	1
0	1771	2981.684035100479	1
0	1774	2985.329068707384	1
0	1775	2988.547692736645	1
0	1782	3000.463034102603	1
0	1787	3011.880004274699	1
0	1790	3018.159982268566	1
0	1793	3021.861243225641	1
0	1794	3023.793714135859	1
0	1807	3054.773264729469	1
0	1808	3054.799280393506	1
0	1817	3074.242504007355	1
0	1820	3075.977148423129	1
0	1821	3077.095143714803	1
0	1822	3077.421611693033	1
0	1829	3090.419977919759	1
0	1830	3093.000995194443	1
0	1831	3094.67137060974	1
0	1834	3099.684182651381	1
0	1841	3110.750318809055	1
0	1846	3123.92097578877	1
0	1849	3125.979478678134	1
0	1856	3143.595235384281	1
0	1857	3144.104313594166	1
0	1860	3149.454726042306	1
0	1863	3154.736931013211	1
0	1868	3163.358890440553	1
0	1871	3165.890210275963	1
0	1886	3202.057552539956	1
0	1891	3210.442226204914	1
0	1892	3214.593529438747	1
0	1899	3225.620533457759	1
0	1902	3231.611290396981	1
0	1903	3233.654878668151	1
0	1904	3234.082982638706	1
0	1905	3234.881981540877	1
0	1910	3242.128590888255	1
0	1911	3243.513302014895	1
0	1912	3244.251461431051	1
0	1915	3247.082109189529	1
0	1918	3250.772792902271	1
0	1921	3258.188659942446	1
0	1928	3274.128080803813	1
0	1929	3274.693947465774	1
0	1932	3279.072141456228	1
0	1939	3292.853206843617	1
0	1940	3293.122891625707	1
0	1947	3306.854150976829	1
0	1948	3309.406626790343	1
0	1953	3316.998472532329	1
0	1954	3317.798193599096	1
0	1959	3325.038924218844	1
0	1962	3330.385579510684	1
0	1967	3340.290355991301	1
0	1968	3340.763189673806	1
0	1969	3344.206743893587	1
0	1972	3349.03392289207	1
0	1975	3351.443818939872	1
0	1976	3351.951562792777	1
0	1977	3352.877343060205	1
0	1986	3373.853686160815	1
0	1989	3377.033938516436	1
0	1990	3377.649490791019	1
0	1993	3380.916757089653	1
0	1994	3384.467108817931	1
0	2003	3404.0178126662	1
0	2004	3404.220102444503	1
0	2005	3404.844040056297	1
0	2008	3408.149439060446	1
0	2011	3411.214275403855	1
0	2012	3412.555390870212	1
0	2015	3415.10795374989	1
0	2018	3420.672272807949	1
0	2019	3422.785721748284	1
0	2024	3432.501724529917	1
0	2027	3437.598700470258	1
0	2030	3440.145843021363	1
0	2031	3442.971901195598	1
0	2034	3445.319941356241	1
0	2037	3450.737682297708	1
0	2040	3455.646606825707	1
0	2045	3467.913136033223	1
0	2048	3474.392525115716	1
0	2051	3478.241834794785	1
0	2052	3478.827184991425	1
0	2057	3487.785456670858	1
0	2060	3490.384566395259	1
0	2061	3492.320553731464	1
0	2064	3498.578098516217	1
0	2067	3502.70095713211	1
0	2070	3505.252252883902	1
0	2071	3509.036524470034	1
0	2074	3513.697458172862	1
0	2077	3519.771236715701	1
0	2080	3524.80760015765	1
0	2089	3540.795893944678	1
0	2094	3551.892371553545	1
0	2097	3555.720066964916	1
0	2098	3558.309684190269	1
0	2105	3574.196837297598	1
0	2116	3598.384774542904	1
1	2	5	0
1	5	10	0
1	7	15	0
1	10	20	0
1	14	25	0
1	17	30	0
1	21	35	0
1	23	40	0
1	26	45	0
1	30	50	0
1	32	55	0
1	35	60	0
1	39	65	0
1	41	70	0
1	43	75	0
1	47	80	0
1	51	85	0
1	53	90	0
1	57	95	0
1	59	100	0
1	62	105	0
1	65	110	0
1	67	115	0
1	70	120	0
1	74	125	0
1	77	130	0
1	80	135	0
1	83	140	0
1	85	145	0
1	89	150	0
1	93	155	0
1	96	160	0
1	99	165	0
1	104	170	0
1	107	175	0
1	110	180	0
1	113	185	0
1	115	190	0
1	117	195	0
1	121	200	0
1	124	205	0
1	126	210	0
1	128	215	0
1	131	220	0
1	133	225	0
1	135	230	0
1	139	235	0
1	143	240	0
1	146	245	0
1	149	250	0
1	154	255	0
1	157	260	0
1	159	265	0
1	161	270	0
1	164	275	0
1	167	280	0
1	169	285	0
1	171	290	0
1	173	295	0
1	175	300	0
1	177	305	0
1	181	310	0
1	186	315	0
1	188	320	0
1	192	325	0
1	195	330	0
1	197	335	0
1	199	340	0
1	204	345	0
1	207	350	0
1	210	355	0
1	212	360	0
1	214	365	0
1	216	370	0
1	219	375	0
1	221	380	0
1	223	385	0
1	225	390	0
1	231	395	0
1	236	400	0
1	240	405	0
1	243	410	0
1	245	415	0
1	250	420	0
1	252	425	0
1	255	430	0
1	257	435	0
1	261	440	0
1	263	445	0
1	265	450	0
1	269	455	0
1	271	460	0
1	273	465	0
1	276	470	0
1	280	475	0
1	283	480	0
1	285	485	0
1	290	490	0
1	295	495	0
1	297	500	0
1	301	505	0
1	303	510	0
1	306	515	0
1	310	520	0
1	312	525	0
1	314	530	0
1	317	535	0
1	320	540	0
1	323	545	0
1	327	550	0
1	329	555	0
1	332	560	0
1	335	565	0
1	337	570	0
1	342	575	0
1	344	580	0
1	348	585	0
1	351	590	0
1	355	595	0
1	357	600	0
1	360	605	0
1	363	610	0
1	366	615	0
1	370	620	0
1	373	625	0
1	376	630	0
1	381	635	0
1	384	640	0
1	388	645	0
1	391	650	0
1	394	655	0
1	396	660	0
1	399	665	0
1	403	670	0
1	406	675	0
1	410	680	0
1	413	685	0
1	417	690	0
1	423	695	0
1	426	700	0
1	428	705	0
1	431	710	0
1	435	715	0
1	438	720	0
1	440	725	0
1	443	730	0
1	446	735	0
1	448	740	0
1	451	745	0
1	453	750	0
1	457	755	0
1	461	760	0
1	463	765	0
1	466	770	0
1	468	775	0
1	475	780	0
1	477	785	0
1	479	790	0
1	481	795	0
1	484	800	0
1	486	805	0
1	490	810	0
1	492	815	0
1	494	820	0
1	496	825	0
1	499	830	0
1	502	835	0
1	504	840	0
1	506	845	0
1	509	850	0
1	514	855	0
1	520	860	0
1	522	865	0
1	525	870	0
1	527	875	0
1	530	880	0
1	532	885	0
1	535	890	0
1	538	895	0
1	540	900	0
1	543	905	0
1	546	910	0
1	550	915	0
1	552	920	0
1	554	925	0
1	556	930	0
1	558	935	0
1	561	940	0
1	563	945	0
1	566	950	0
1	569	955	0
1	575	960	0
1	579	965	0
1	581	970	0
1	583	975	0
1	586	980	0
1	590	985	0
1	596	990	0
1	600	995	0
1	602	1000	0
1	605	1005	0
1	609	1010	0
1	612	1015	0
1	614	1020	0
1	617	1025	0
1	621	1030	0
1	624	1035	0
1	627	1040	0
1	629	1045	0
1	633	1050	0
1	636	1055	0
1	638	1060	0
1	643	1065	0
1	645	1070	0
1	648	1075	0
1	650	1080	0
1	653	1085	0
1	656	1090	0
1	658	1095	0
1	662	1100	0
1	664	1105	0
1	668	1110	0
1	670	1115	0
1	673	1120	0
1	676	1125	0
1	681	1130	0
1	683	1135	0
1	686	1140	0
1	689	1145	0
1	693	1150	0
1	695	1155	0
1	697	1160	0
1	700	1165	0
1	704	1170	0
1	708	1175	0
1	710	1180	0
1	715	1185	0
1	718	1190	0
1	720	1195	0
1	723	1200	0
1	727	1205	0
1	730	1210	0
1	734	1215	0
1	737	1220	0
1	739	1225	0
1	744	1230	0
1	748	1235	0
1	752	1240	0
1	754	1245	0
1	758	1250	0
1	760	1255	0
1	763	1260	0
1	765	1265	0
1	768	1270	0
1	771	1275	0
1	773	1280	0
1	775	1285	0
1	779	1290	0
1	784	1295	0
1	788	1300	0
1	791	1305	0
1	793	1310	0
1	796	1315	0
1	801	1320	0
1	804	1325	0
1	807	1330	0
1	810	1335	0
1	813	1340	0
1	817	1345	0
1	820	1350	0
1	822	1355	0
1	824	1360	0
1	827	1365	0
1	830	1370	0
1	833	1375	0
1	835	1380	0
1	838	1385	0
1	840	1390	0
1	843	1395	0
1	847	1400	0
1	849	1405	0
1	851	1410	0
1	853	1415	0
1	856	1420	0
1	858	1425	0
1	860	1430	0
1	862	1435	0
1	866	1440	0
1	870	1445	0
1	874	1450	0
1	876	1455	0
1	880	1460	0
1	884	1465	0
1	886	1470	0
1	888	1475	0
1	890	1480	0
1	893	1485	0
1	895	1490	0
1	897	1495	0
1	899	1500	0
1	902	1505	0
1	907	1510	0
1	911	1515	0
1	915	1520	0
1	917	1525	0
1	919	1530	0
1	922	1535	0
1	924	1540	0
1	926	1545	0
1	930	1550	0
1	932	1555	0
1	935	1560	0
1	937	1565	0
1	941	1570	0
1	944	1575	0
1	946	1580	0
1	949	1585	0
1	953	1590	0
1	955	1595	0
1	958	1600	0
1	961	1605	0
1	965	1610	0
1	969	1615	0
1	973	1620	0
1	977	1625	0
1	979	1630	0
1	982	1635	0
1	985	1640	0
1	988	1645	0
1	990	1650	0
1	993	1655	0
1	997	1660	0
1	999	1665	0
1	1002	1670	0
1	1005	1675	0
1	1007	1680	0
1	1013	1685	0
1	1017	1690	0
1	1019	1695	0
1	1021	1700	0
1	1024	1705	0
1	1027	1710	0
1	1029	1715	0
1	1031	1720	0
1	1035	1725	0
1	1039	1730	0
1	1041	1735	0
1	1044	1740	0
1	1047	1745	0
1	1049	1750	0
1	1051	1755	0
1	1054	1760	0
1	1058	1765	0
1	1062	1770	0
1	1065	1775	0
1	1069	1780	0
1	1073	1785	0
1	1076	1790	0
1	1078	1795	0
1	1080	1800	0
1	1083	1805	0
1	1085	1810	0
1	1088	1815	0
1	1091	1820	0
1	1093	1825	0
1	1096	1830	0
1	1099	1835	0
1	1104	1840	0
1	1106	1845	0
1	1108	1850	0
1	1111	1855	0
1	1115	1860	0
1	1117	1865	0
1	1120	1870	0
1	1124	1875	0
1	1128	1880	0
1	1130	1885	0
1	1134	1890	0
1	1137	1895	0
1	1140	1900	0
1	1142	1905	0
1	1146	1910	0
1	1148	1915	0
1	1150	1920	0
1	1153	1925	0
1	1155	1930	0
1	1158	1935	0
1	1160	1940	0
1	1162	1945	0
1	1164	1950	0
1	1167	1955	0
1	1170	1960	0
1	1174	1965	0
1	1176	1970	0
1	1178	1975	0
1	1181	1980	0
1	1184	1985	0
1	1187	1990	0
1	1192	1995	0
1	1197	2000	0
1	1200	2005	0
1	1202	2010	0
1	1205	2015	0
1	1207	2020	0
1	1209	2025	0
1	1212	2030	0
1	1214	2035	0
1	1216	2040	0
1	1221	2045	0
1	1226	2050	0
1	1230	2055	0
1	1233	2060	0
1	1236	2065	0
1	1239	2070	0
1	1244	2075	0
1	1247	2080	0
1	1250	2085	0
1	1255	2090	0
1	1257	2095	0
1	1259	2100	0
1	1261	2105	0
1	1264	2110	0
1	1266	2115	0
1	1268	2120	0
1	1270	2125	0
1	1272	2130	0
1	1275	2135	0
1	1278	2140	0
1	1281	2145	0
1	1283	2150	0
1	1285	2155	0
1	1287	2160	0
1	1290	2165	0
1	1292	2170	0
1	1296	2175	0
1	1299	2180	0
1	1302	2185	0
1	1305	2190	0
1	1307	2195	0
1	1310	2200	0
1	1313	2205	0
1	1317	2210	0
1	1319	2215	0
1	1323	2220	0
1	1326	2225	0
1	1328	2230	0
1	1330	2235	0
1	1332	2240	0
1	1336	2245	0
1	1340	2250	0
1	1343	2255	0
1	1345	2260	0
1	1349	2265	0
1	1351	2270	0
1	1353	2275	0
1	1355	2280	0
1	1359	2285	0
1	1361	2290	0
1	1363	2295	0
1	1365	2300	0
1	1367	2305	0
1	1370	2310	0
1	1372	2315	0
1	1374	2320	0
1	1377	2325	0
1	1381	2330	0
1	1383	2335	0
1	1386	2340	0
1	1388	2345	0
1	1391	2350	0
1	1396	2355	0
1	1399	2360	0
1	1402	2365	0
1	1404	2370	0
1	1408	2375	0
1	1411	2380	0
1	1413	2385	0
1	1417	2390	0
1	1420	2395	0
1	1424	2400	0
1	1427	2405	0
1	1429	2410	0
1	1432	2415	0
1	1436	2420	0
1	1439	2425	0
1	1441	2430	0
1	1443	2435	0
1	1446	2440	0
1	1450	2445	0
1	1453	2450	0
1	1456	2455	0
1	1459	2460	0
1	1463	2465	0
1	1466	2470	0
1	1469	2475	0
1	1471	2480	0
1	1475	2485	0
1	1480	2490	0
1	1483	2495	0
1	1485	2500	0
1	1487	2505	0
1	1491	2510	0
1	1493	2515	0
1	1495	2520	0
1	1497	2525	0
1	1500	2530	0
1	1504	2535	0
1	1506	2540	0
1	1510	2545	0
1	1513	2550	0
1	1515	2555	0
1	1518	2560	0
1	1521	2565	0
1	1524	2570	0
1	1526	2575	0
1	1529	2580	0
1	1532	2585	0
1	1534	2590	0
1	1537	2595	0
1	1542	2600	0
1	1545	2605	0
1	1548	2610	0
1	1551	2615	0
1	1554	2620	0
1	1557	2625	0
1	1561	2630	0
1	1564	2635	0
1	1568	2640	0
1	1572	2645	0
1	1574	2650	0
1	1577	2655	0
1	1579	2660	0
1	1583	2665	0
1	1587	2670	0
1	1590	2675	0
1	1594	2680	0
1	1599	2685	0
1	1602	2690	0
1	1606	2695	0
1	1608	2700	0
1	1610	2705	0
1	1612	2710	0
1	1615	2715	0
1	1618	2720	0
1	1621	2725	0
1	1624	2730	0
1	1626	2735	0
1	1628	2740	0
1	1631	2745	0
1	1634	2750	0
1	1637	2755	0
1	1640	2760	0
1	1642	2765	0
1	1644	2770	0
1	1647	2775	0
1	1650	2780	0
1	1652	2785	0
1	1655	2790	0
1	1659	2795	0
1	1662	2800	0
1	1666	2805	0
1	1668	2810	0
1	1670	2815	0
1	1672	2820	0
1	1674	2825	0
1	1678	2830	0
1	1682	2835	0
1	1685	2840	0
1	1687	2845	0
1	1690	2850	0
1	1694	2855	0
1	1697	2860	0
1	1700	2865	0
1	1704	2870	0
1	1706	2875	0
1	1708	2880	0
1	1711	2885	0
1	1713	2890	0
1	1716	2895	0
1	1720	2900	0
1	1722	2905	0
1	1727	2910	0
1	1731	2915	0
1	1733	2920	0
1	1735	2925	0
1	1739	2930	0
1	1742	2935	0
1	1746	2940	0
1	1748	2945	0
1	1750	2950	0
1	1753	2955	0
1	1757	2960	0
1	1760	2965	0
1	1763	2970	0
1	1765	2975	0
1	1769	2980	0
1	1772	2985	0
1	1776	2990	0
1	1778	2995	0
1	1780	3000	0
1	1783	3005	0
1	1785	3010	0
1	1788	3015	0
1	1791	3020	0
1	1795	3025	0
1	1797	3030	0
1	1799	3035	0
1	1801	3040	0
1	1803	3045	0
1	1805	3050	0
1	1809	3055	0
1	1811	3060	0
1	1813	3065	0
1	1815	3070	0
1	1818	3075	0
1	1823	3080	0
1	1825	3085	0
1	1827	3090	0
1	1832	3095	0
1	1835	3100	0
1	1837	3105	0
1	1839	3110	0
1	1842	3115	0
1	1844	3120	0
1	1847	3125	0
1	1850	3130	0
1	1852	3135	0
1	1854	3140	0
1	1858	3145	0
1	1861	3150	0
1	1864	3155	0
1	1866	3160	0
1	1869	3165	0
1	1872	3170	0
1	1874	3175	0
1	1876	3180	0
1	1878	3185	0
1	1880	3190	0
1	1882	3195	0
1	1884	3200	0
1	1887	3205	0
1	1889	3210	0
1	1893	3215	0
1	1895	3220	0
1	1897	3225	0
1	1900	3230	0
1	1906	3235	0
1	1908	3240	0
1	1913	3245	0
1	1916	3250	0
1	1919	3255	0
1	1922	3260	0
1	1924	3265	0
1	1926	3270	0
1	1930	3275	0
1	1933	3280	0
1	1935	3285	0
1	1937	3290	0
1	1941	3295	0
1	1943	3300	0
1	1945	3305	0
1	1949	3310	0
1	1951	3315	0
1	1955	3320	0
1	1957	3325	0
1	1960	3330	0
1	1963	3335	0
1	1965	3340	0
1	1970	3345	0
1	1973	3350	0
1	1978	3355	0
1	1980	3360	0
1	1982	3365	0
1	1984	3370	0
1	1987	3375	0
1	1991	3380	0
1	1995	3385	0
1	1997	3390	0
1	1999	3395	0
1	2001	3400	0
1	2006	3405	0
1	2009	3410	0
1	2013	3415	0
1	2016	3420	0
1	2020	3425	0
1	2022	3430	0
1	2025	3435	0
1	2028	3440	0
1	2032	3445	0
1	2035	3450	0
1	2038	3455	0
1	2041	3460	0
1	2043	3465	0
1	2046	3470	0
1	2049	3475	0
1	2053	3480	0
1	2055	3485	0
1	2058	3490	0
1	2062	3495	0
1	2065	3500	0
1	2068	3505	0
1	2072	3510	0
1	2075	3515	0
1	2078	3520	0
1	2081	3525	0
1	2083	3530	0
1	2085	3535	0
1	2087	3540	0
1	2090	3545	0
1	2092	3550	0
1	2095	3555	0
1	2099	3560	0
1	2101	3565	0
1	2103	3570	0
1	2106	3575	0
1	2108	3580	0
1	2110	3585	0
1	2112	3590	0
1	2114	3595	0
1	2117	3600	0
2	16	29.346475790851	1
2	19	31.772116609459	1
2	20	33.537912305147	1
2	25	44.655534415329	1
2	28	46.247315119538	1
2	29	49.494546860792	1
2	34	57.339027448907	1
2	37	60.608440285013	1
2	38	63.102800330092	1
2	45	76.094070759337	1
2	46	76.549875889958	1
2	49	81.772938431498	1
2	50	84.069179117774	1
2	55	93.006617434967	1
2	56	93.762771703292	1
2	61	103.964342993001	1
2	64	107.172888856392	1
2	69	115.242899230855	1
2	72	122.825579100806	1
2	73	123.454951147996	1
2	76	129.831089659114	1
2	79	134.192695634325	1
2	82	138.046868926662	1
2	87	145.153692327131	1
2	88	147.83152092827	1
2	91	151.039994438426	1
2	92	152.071010848578	1
2	95	159.512284977336	1
2	98	162.557697093251	1
2	101	166.759370621312	1
2	102	166.854213467317	1
2	103	168.813067520701	1
2	106	173.61997221603	1
2	109	178.354955601905	1
2	112	183.152695488746	1
2	119	197.542270595134	1
2	120	199.76986307039	1
2	123	204.517335987874	1
2	130	216.149091296346	1
2	137	233.650159718619	1
2	138	234.587290048708	1
2	141	235.768323579122	1
2	142	236.458467021264	1
2	145	243.403680470219	1
2	148	248.083988269076	1
2	151	250.049551055596	1
2	152	250.245466837661	1
2	153	253.132088391694	1
2	156	258.161443417527	1
2	163	274.126176627795	1
2	166	279.166272854896	1
2	179	305.966774606112	1
2	180	307.368159648507	1
2	183	312.25248001886	1
2	184	314.314986168472	1
2	185	314.899763217434	1
2	190	320.515604725101	1
2	191	321.259166071362	1
2	194	328.792342737725	1
2	201	343.728292196985	1
2	202	343.796615089139	1
2	203	344.307339496764	1
2	206	349.182849167546	1
2	209	354.781920996316	1
2	218	372.649862858038	1
2	227	391.459499280558	1
2	228	391.560449921289	1
2	229	391.76033141658	1
2	230	394.674723360915	1
2	233	396.336774565734	1
2	234	396.97705839229	1
2	235	399.204155701889	1
2	238	400.960036148796	1
2	239	401.591979330923	1
2	242	407.426346963666	1
2	247	418.047532948674	1
2	248	418.379019956085	1
2	249	419.600997196494	1
2	254	425.49694483182	1
2	259	435.513147444356	1
2	260	439.216942196591	1
2	267	451.644853981475	1
2	268	452.078706393173	1
2	275	465.324986036555	1
2	278	470.829215587009	1
2	279	471.535869154813	1
2	282	476.74477242571	1
2	287	485.951184783145	1
2	288	486.962936975981	1
2	289	489.498937592264	1
2	292	493.91458280206	1
2	293	494.016145096038	1
2	294	494.917406355962	1
2	299	503.746111718027	1
2	300	504.53781924918	1
2	305	510.200989959042	1
2	308	516.283533226225	1
2	309	517.985266917401	1
2	316	534.360982805975	1
2	319	538.65294764512	1
2	322	543.135901999049	1
2	325	547.382006056871	1
2	326	548.644106021327	1
2	331	559.751640513698	1
2	334	562.714760650959	1
2	339	572.082060050245	1
2	340	572.699693287056	1
2	341	574.464793953427	1
2	346	581.748886746248	1
2	347	584.273980485021	1
2	350	589.90039056924	1
2	353	591.33744294959	1
2	354	593.216137161624	1
2	359	603.89028941154	1
2	362	608.329596463724	1
2	365	613.718770884406	1
2	368	617.528109740886	1
2	369	618.838395949263	1
2	372	624.00238100249	1
2	375	626.759360953161	1
2	378	631.421375355194	1
2	379	631.518274261934	1
2	380	634.693912840088	1
2	383	636.488548919437	1
2	386	641.885149912715	1
2	387	643.598148036205	1
2	390	646.016326469152	1
2	393	652.931222501836	1
2	398	663.468460526588	1
2	401	665.239581187815	1
2	402	669.459023550769	1
2	405	671.644163619639	1
2	408	675.656923548432	1
2	409	675.827940640222	1
2	412	681.122987567128	1
2	415	686.402235610427	1
2	416	689.225288116031	1
2	419	690.47569559092	1
2	420	691.237163717192	1
2	421	693.528028136983	1
2	422	694.039631211246	1
2	425	696.901938968388	1
2	430	708.026512254515	1
2	433	711.876896552246	1
2	434	714.847264043865	1
2	437	715.375327262009	1
2	442	727.971737912425	1
2	445	731.139051001038	1
2	450	740.337714926425	1
2	455	750.467259011941	1
2	456	754.016848648061	1
2	459	758.796680767673	1
2	460	759.457599315746	1
2	465	767.006716593793	1
2	470	775.240312100427	1
2	471	775.994267151396	1
2	472	778.608617301838	1
2	473	778.777551229598	1
2	474	779.135928151162	1
2	483	799.385162345185	1
2	488	805.786833364247	1
2	489	808.061392588206	1
2	498	826.611195547725	1
2	501	833.850165957667	1
2	508	848.273224718179	1
2	511	850.346287431474	1
2	512	853.708590015642	1
2	513	853.987940280085	1
2	516	856.057834893448	1
2	517	857.046982430743	1
2	518	857.140459782848	1
2	519	858.078054538862	1
2	524	865.970118149392	1
2	529	876.350273451606	1
2	534	889.51136776435	1
2	537	894.051187900973	1
2	542	901.70534403231	1
2	545	906.562754822785	1
2	548	910.867373006188	1
2	549	912.2257133579	1
2	560	936.621377797868	1
2	565	946.607237635318	1
2	568	953.156164492126	1
2	571	955.025596971642	1
2	572	957.564922585075	1
2	573	958.758686949314	1
2	574	959.936309816407	1
2	577	961.194302881971	1
2	578	962.428599225965	1
2	585	976.873977185459	1
2	588	980.24520003364	1
2	589	981.53526385334	1
2	592	987.240953367637	1
2	593	987.686724817613	1
2	594	987.98562963219	1
2	595	988.27599144277	1
2	598	991.125479269302	1
2	599	992.993828241274	1
2	604	1003.637178713931	1
2	607	1006.009260165596	1
2	608	1006.999098842266	1
2	611	1010.908977446644	1
2	616	1020.550778131043	1
2	619	1026.238470658746	1
2	620	1029.261376750422	1
2	623	1034.913154479975	1
2	626	1039.583456143001	1
2	631	1045.854472493456	1
2	632	1047.076927603671	1
2	635	1050.121092172357	1
2	640	1061.965683026542	1
2	641	1062.070019119593	1
2	642	1063.371776177329	1
2	647	1070.473693455255	1
2	652	1082.212912262402	1
2	655	1086.650421904821	1
2	660	1095.541138588991	1
2	661	1095.541415348467	1
2	666	1105.845521552871	1
2	667	1108.616375698111	1
2	672	1116.614972907311	1
2	675	1122.310261160675	1
2	678	1125.355484224219	1
2	679	1128.657999622965	1
2	680	1129.871592091324	1
2	685	1137.644906780368	1
2	688	1144.207446745196	1
2	691	1145.672204037629	1
2	692	1146.87182163481	1
2	699	1162.657299341888	1
2	702	1168.874053231631	1
2	703	1169.708426437795	1
2	706	1172.472618291054	1
2	707	1174.816000670939	1
2	712	1180.012028853846	1
2	713	1181.638108943727	1
2	714	1182.669898911752	1
2	717	1187.088827191917	1
2	722	1197.059023198302	1
2	725	1202.676325696042	1
2	726	1204.297321263474	1
2	729	1205.00553143745	1
2	732	1211.314594804886	1
2	733	1213.835994471143	1
2	736	1216.946179066549	1
2	741	1226.122496081247	1
2	742	1226.904874933169	1
2	743	1227.80624643106	1
2	746	1231.153949385365	1
2	747	1233.351226337829	1
2	750	1239.753348107723	1
2	751	1239.907979565526	1
2	756	1247.155753447664	1
2	757	1247.641591839499	1
2	762	1259.344051642786	1
2	767	1266.260633973542	1
2	770	1270.651709367133	1
2	777	1286.994191371248	1
2	778	1288.37183105644	1
2	781	1294.026423452383	1
2	782	1294.351987776316	1
2	783	1294.434818248424	1
2	786	1298.490523359564	1
2	787	1298.536938481454	1
2	790	1304.078987252524	1
2	795	1311.768130824907	1
2	798	1317.8465831917	1
2	799	1318.848794167129	1
2	800	1319.179254220596	1
2	803	1322.770486621136	1
2	806	1327.113315278465	1
2	809	1334.85837367424	1
2	812	1339.521432950584	1
2	815	1340.753512061648	1
2	816	1343.789908504745	1
2	819	1345.107794068921	1
2	826	1360.018797446284	1
2	829	1368.046091261623	1
2	832	1373.023409478456	1
2	837	1383.392216793956	1
2	842	1392.699375008866	1
2	845	1397.509434641816	1
2	846	1397.576060865958	1
2	855	1415.874347519783	1
2	864	1435.914095794155	1
2	865	1435.93437740076	1
2	868	1441.035312840534	1
2	869	1443.334269429413	1
2	872	1445.976605570922	1
2	873	1448.771643920877	1
2	878	1457.404810819588	1
2	879	1459.968384032736	1
2	882	1463.548610622704	1
2	883	1464.818667514455	1
2	892	1484.55683385225	1
2	901	1502.601538877169	1
2	904	1505.251346773529	1
2	905	1507.477093470561	1
2	906	1509.503007882273	1
2	909	1512.05296205152	1
2	910	1513.849431577151	1
2	913	1516.46426984543	1
2	914	1517.785622166109	1
2	921	1530.818481177714	1
2	928	1546.09278007275	1
2	929	1549.904898493824	1
2	934	1557.265919283792	1
2	939	1567.987846606359	1
2	940	1568.457219342772	1
2	943	1574.114113180794	1
2	948	1582.428942084165	1
2	951	1585.157230658002	1
2	952	1589.232322312483	1
2	957	1598.080421428533	1
2	960	1604.572649606556	1
2	963	1606.148449750135	1
2	964	1606.85328917221	1
2	967	1611.334935197313	1
2	968	1614.570808717528	1
2	971	1616.365615309411	1
2	972	1617.885473105555	1
2	975	1620.952668553516	1
2	976	1624.670584512397	1
2	981	1630.419291451146	1
2	984	1639.993502739359	1
2	987	1642.834355158071	1
2	992	1651.602928383189	1
2	995	1659.37165589335	1
2	996	1659.664295388083	1
2	1001	1665.058929930581	1
2	1004	1672.600006088716	1
2	1009	1680.11207005727	1
2	1010	1681.094379486754	1
2	1011	1683.434911752928	1
2	1012	1683.797007303501	1
2	1015	1688.22581053365	1
2	1016	1689.818729773045	1
2	1023	1700.949149720254	1
2	1026	1708.501457726374	1
2	1033	1721.463700770291	1
2	1034	1724.838455638557	1
2	1037	1725.238849918277	1
2	1038	1728.89657661394	1
2	1043	1739.612075116089	1
2	1046	1743.920412575065	1
2	1053	1759.944456723124	1
2	1056	1760.124470871871	1
2	1057	1762.938596880957	1
2	1060	1767.003088686885	1
2	1061	1767.874064488756	1
2	1064	1771.715331198093	1
2	1067	1777.434308093687	1
2	1068	1779.06016244613	1
2	1071	1782.93437434365	1
2	1072	1784.904662203385	1
2	1075	1787.398123867735	1
2	1082	1803.062271315468	1
2	1087	1814.778470965931	1
2	1090	1815.262458327472	1
2	1095	1827.332540480012	1
2	1098	1830.400561528717	1
2	1101	1836.840371404097	1
2	1102	1839.386383838429	1
2	1103	1839.876981451573	1
2	1110	1851.596329655566	1
2	1113	1857.609898574713	1
2	1114	1859.595303324815	1
2	1119	1865.893509177934	1
2	1122	1870.94735499343	1
2	1123	1872.319672603448	1
2	1126	1879.602473661327	1
2	1127	1879.651545843318	1
2	1132	1887.609326457284	1
2	1133	1888.934791964318	1
2	1136	1891.998519188637	1
2	1139	1896.468526202037	1
2	1144	1906.218410761271	1
2	1145	1906.731170226289	1
2	1152	1921.900883088277	1
2	1157	1930.496229647219	1
2	1166	1954.913724598945	1
2	1169	1959.870122127742	1
2	1172	1962.411219398006	1
2	1173	1962.735047861955	1
2	1180	1976.538070140371	1
2	1183	1983.042257277671	1
2	1186	1989.820849846921	1
2	1189	1991.654375615891	1
2	1190	1992.292243484877	1
2	1191	1994.487628412816	1
2	1194	1997.421472446216	1
2	1195	1999.907518877929	1
2	1196	1999.989835297853	1
2	1199	2003.784659169096	1
2	1204	2013.11786152	1
2	1211	2026.363802831151	1
2	1218	2040.893400849429	1
2	1219	2043.92056975763	1
2	1220	2044.208534341715	1
2	1223	2046.186362343691	1
2	1224	2047.511037031878	1
2	1225	2048.864658985564	1
2	1228	2053.630271676894	1
2	1229	2053.798441281495	1
2	1232	2057.493041381191	1
2	1235	2061.091265869634	1
2	1238	2066.337976699269	1
2	1241	2070.270772158727	1
2	1242	2070.435792084009	1
2	1243	2071.685546167258	1
2	1246	2076.024855516696	1
2	1249	2083.396966640614	1
2	1252	2085.756807079474	1
2	1253	2089.133586430336	1
2	1254	2089.747161466921	1
2	1263	2109.734978850521	1
2	1274	2132.93637883027	1
2	1277	2138.027466724305	1
2	1280	2141.397183945399	1
2	1289	2164.136303204698	1
2	1294	2172.229608536796	1
2	1295	2173.611134501434	1
2	1298	2179.364447466081	1
2	1301	2181.760510938498	1
2	1304	2186.785177483796	1
2	1309	2199.863382145907	1
2	1312	2202.622392754098	1
2	1315	2206.667291229762	1
2	1316	2208.359021823255	1
2	1321	2217.004620011668	1
2	1322	2219.684113988366	1
2	1325	2222.647401078049	1
2	1334	2240.000626480726	1
2	1335	2240.236122836003	1
2	1338	2246.946221541916	1
2	1339	2249.9270809989	1
2	1342	2252.069619019799	1
2	1347	2260.505710463587	1
2	1348	2262.910101585102	1
2	1357	2280.274380114615	1
2	1358	2280.919572630536	1
2	1369	2305.068173870383	1
2	1376	2320.143015231313	1
2	1379	2325.995193881382	1
2	1380	2326.295835727032	1
2	1385	2338.723991148767	1
2	1390	2349.397503121472	1
2	1393	2350.110017849725	1
2	1394	2352.453996307921	1
2	1395	2354.79838708606	1
2	1398	2356.759193534173	1
2	1401	2362.458170567496	1
2	1406	2370.394956715958	1
2	1407	2373.377706300343	1
2	1410	2375.134312708054	1
2	1415	2385.990442114825	1
2	1416	2387.347791946972	1
2	1419	2394.052300569928	1
2	1422	2398.104766305839	1
2	1423	2399.229978775149	1
2	1426	2404.255557018011	1
2	1431	2414.353479534107	1
2	1434	2416.498038712965	1
2	1435	2416.622679191603	1
2	1438	2422.635465915148	1
2	1445	2439.840186153075	1
2	1448	2442.845959384995	1
2	1449	2443.213491272089	1
2	1452	2447.94399997836	1
2	1455	2453.51629113694	1
2	1458	2456.482943978243	1
2	1461	2462.437851245226	1
2	1462	2464.814549593434	1
2	1465	2469.447742594918	1
2	1468	2471.860618670722	1
2	1473	2483.148002624504	1
2	1474	2483.245449089263	1
2	1477	2487.20349456228	1
2	1478	2488.810196076625	1
2	1479	2489.613846279462	1
2	1482	2494.09911134999	1
2	1489	2505.452661886973	1
2	1490	2509.468345746579	1
2	1499	2528.065387301076	1
2	1502	2530.633815367396	1
2	1503	2532.061659969912	1
2	1508	2543.009893542703	1
2	1509	2544.867972316842	1
2	1512	2546.495055902653	1
2	1517	2557.757520253009	1
2	1520	2564.700906622345	1
2	1523	2566.72953834168	1
2	1528	2579.62510399561	1
2	1531	2580.548183360142	1
2	1536	2592.13581367297	1
2	1539	2595.089989774993	1
2	1540	2595.642569158003	1
2	1541	2599.234398334059	1
2	1544	2601.376603478013	1
2	1547	2608.113847596467	1
2	1550	2613.819064267734	1
2	1553	2618.688457225134	1
2	1556	2624.886947628216	1
2	1559	2626.033533486399	1
2	1560	2628.123991781117	1
2	1563	2633.218757686499	1
2	1566	2637.193121866827	1
2	1567	2638.785086947106	1
2	1570	2642.707870431696	1
2	1571	2644.369173549589	1
2	1576	2654.069414598981	1
2	1581	2660.264597135872	1
2	1582	2663.347562578488	1
2	1585	2665.679047710676	1
2	1586	2669.459878949627	1
2	1589	2673.542842393867	1
2	1592	2675.783282235744	1
2	1593	2679.276187266139	1
2	1596	2681.880081590492	1
2	1597	2682.003149810847	1
2	1598	2684.774492177913	1
2	1601	2686.871888795259	1
2	1604	2691.739251513489	1
2	1605	2693.375303420121	1
2	1614	2710.722272614004	1
2	1617	2715.025846151574	1
2	1620	2720.967491953011	1
2	1623	2726.540546968006	1
2	1630	2741.406588665414	1
2	1633	2746.615810989519	1
2	1636	2751.202169974079	1
2	1639	2755.644813535707	1
2	1646	2772.098057687004	1
2	1649	2778.059636558099	1
2	1654	2786.461048558506	1
2	1657	2791.690175022437	1
2	1658	2791.837834078257	1
2	1661	2799.661116831745	1
2	1664	2800.172625736793	1
2	1665	2803.089926598318	1
2	1676	2826.721902582624	1
2	1677	2829.812164468324	1
2	1680	2831.104460711912	1
2	1681	2833.745180665521	1
2	1684	2837.618249347302	1
2	1689	2848.531818793729	1
2	1692	2853.354317602529	1
2	1693	2854.070561121456	1
2	1696	2856.661700361975	1
2	1699	2860.595115939274	1
2	1702	2865.455360781673	1
2	1703	2867.840349536395	1
2	1710	2880.617938119715	1
2	1715	2893.457601263226	1
2	1718	2895.149806927313	1
2	1719	2895.369443097946	1
2	1724	2907.98453040472	1
2	1725	2908.547180136613	1
2	1726	2909.507658017356	1
2	1729	2911.410212760166	1
2	1730	2912.825574939403	1
2	1737	2928.023232890073	1
2	1738	2928.897784190552	1
2	1741	2933.236559905248	1
2	1744	2937.792288945599	1
2	1745	2939.151618138471	1
2	1752	2951.074694854625	1
2	1755	2956.485204277045	1
2	1756	2959.386652216961	1
2	1759	2964.297843139008	1
2	1762	2966.539489672067	1
2	1767	2978.63474664286	1
2	1768	2978.836854531126	1
2	1771	2981.684035100479	1
2	1774	2985.329068707384	1
2	1775	2988.547692736645	1
2	1782	3000.463034102603	1
2	1787	3011.880004274699	1
2	1790	3018.159982268566	1
2	1793	3021.861243225641	1
2	1794	3023.793714135859	1
2	1807	3054.773264729469	1
2	1808	3054.799280393506	1
2	1817	3074.242504007355	1
2	1820	3075.977148423129	1
2	1821	3077.095143714803	1
2	1822	3077.421611693033	1
2	1829	3090.419977919759	1
2	1830	3093.000995194443	1
2	1831	3094.67137060974	1
2	1834	3099.684182651381	1
2	1841	3110.750318809055	1
2	1846	3123.92097578877	1
2	1849	3125.979478678134	1
2	1856	3143.595235384281	1
2	1857	3144.104313594166	1
2	1860	3149.454726042306	1
2	1863	3154.736931013211	1
2	1868	3163.358890440553	1
2	1871	3165.890210275963	1
2	1886	3202.057552539956	1
2	1891	3210.442226204914	1
2	1892	3214.593529438747	1
2	1899	3225.620533457759	1
2	1902	3231.611290396981	1
2	1903	3233.654878668151	1
2	1904	3234.082982638706	1
2	1905	3234.881981540877	1
2	1910	3242.128590888255	1
2	1911	3243.513302014895	1
2	1912	3244.251461431051	1
2	1915	3247.082109189529	1
2	1918	3250.772792902271	1
2	1921	3258.188659942446	1
2	1928	3274.128080803813	1
2	1929	3274.693947465774	1
2	1932	3279.072141456228	1
2	1939	3292.853206843617	1
2	1940	3293.122891625707	1
2	1947	3306.854150976829	1
2	1948	3309.406626790343	1
2	1953	3316.998472532329	1
2	1954	3317.798193599096	1
2	1959	3325.038924218844	1
2	1962	3330.385579510684	1
2	1967	3340.290355991301	1
2	1968	3340.763189673806	1
2	1969	3344.206743893587	1
2	1972	3349.03392289207	1
2	1975	3351.443818939872	1
2	1976	3351.951562792777	1
2	1977	3352.877343060205	1
2	1986	3373.853686160815	1
2	1989	3377.033938516436	1
2	1990	3377.649490791019	1
2	1993	3380.916757089653	1
2	1994	3384.467108817931	1
2	2003	3404.0178126662	1
2	2004	3404.220102444503	1
2	2005	3404.844040056297	1
2	2008	3408.149439060446	1
2	2011	3411.214275403855	1
2	2012	3412.555390870212	1
2	2015	3415.10795374989	1
2	2018	3420.672272807949	1
2	2019	3422.785721748284	1
2	2024	3432.501724529917	1
2	2027	3437.598700470258	1
2	2030	3440.145843021363	1
2	2031	3442.971901195598	1
2	2034	3445.319941356241	1
2	2037	3450.737682297708	1
2	2040	3455.646606825707	1
2	2045	3467.913136033223	1
2	2048	3474.392525115716	1
2	2051	3478.241834794785	1
2	2052	3478.827184991425	1
2	2057	3487.785456670858	1
2	2060	3490.384566395259	1
2	2061	3492.320553731464	1
2	2064	3498.578098516217	1
2	2067	3502.70095713211	1
2	2070	3505.252252883902	1
2	2071	3509.036524470034	1
2	2074	3513.697458172862	1
2	2077	3519.771236715701	1
2	2080	3524.80760015765	1
2	2089	3540.795893944678	1
2	2094	3551.892371553545	1
2	2097	3555.720066964916	1
2	2098	3558.309684190269	1
2	2105	3574.196837297598	1
2	2116	3598.384774542904	1

