version 2
run DegeneracyTest1-0-20201214-14:40:55-8825
attr configname DegeneracyTest1
attr datetime 20201214-14:40:55
attr experiment DegeneracyTest1
attr inifile omnetpp.ini
attr iterationvars ""
attr iterationvarsf ""
attr measurement ""
attr network slottedNetwork
attr processid 8825
attr repetition 0
attr replication #0
attr resultdir results
attr runnumber 0
attr seedset 0
param **.numTransmitters 0
param **.numTransmitters 1
param **.numChannels 1
param **.bufferSize 5
param **.sendProbability 1
param **.expMean 5s
param **.timeSlotSize 5s
param **.thresh 20s
param **.deterministicInterarrivalTime false

vector 0 slottedNetwork.ch throughput:vector ETV
attr source throughputSignal
0	1	5	0
0	2	10	0
0	3	15	0
0	4	20	0
0	5	25	0
0	6	30	0
0	7	35	0
0	8	40	0
0	9	45	0
0	10	50	0
0	11	55	0
0	12	60	0
0	13	65	0
0	14	70	0
0	15	75	0
0	16	80	0
0	17	85	0
0	18	90	0
0	19	95	0
0	20	100	0
0	21	105	0
0	22	110	0
0	23	115	0
0	24	120	0
0	25	125	0
0	26	130	0
0	27	135	0
0	28	140	0
0	29	145	0
0	30	150	0
0	31	155	0
0	32	160	0
0	33	165	0
0	34	170	0
0	35	175	0
0	36	180	0
0	37	185	0
0	38	190	0
0	39	195	0
0	40	200	0
0	41	205	0
0	42	210	0
0	43	215	0
0	44	220	0
0	45	225	0
0	46	230	0
0	47	235	0
0	48	240	0
0	49	245	0
0	50	250	0
0	51	255	0
0	52	260	0
0	53	265	0
0	54	270	0
0	55	275	0
0	56	280	0
0	57	285	0
0	58	290	0
0	59	295	0
0	60	300	0
0	61	305	0
0	62	310	0
0	63	315	0
0	64	320	0
0	65	325	0
0	66	330	0
0	67	335	0
0	68	340	0
0	69	345	0
0	70	350	0
0	71	355	0
0	72	360	0
0	73	365	0
0	74	370	0
0	75	375	0
0	76	380	0
0	77	385	0
0	78	390	0
0	79	395	0
0	80	400	0
0	81	405	0
0	82	410	0
0	83	415	0
0	84	420	0
0	85	425	0
0	86	430	0
0	87	435	0
0	88	440	0
0	89	445	0
0	90	450	0
0	91	455	0
0	92	460	0
0	93	465	0
0	94	470	0
0	95	475	0
0	96	480	0
0	97	485	0
0	98	490	0
0	99	495	0
0	100	500	0
0	101	505	0
0	102	510	0
0	103	515	0
0	104	520	0
0	105	525	0
0	106	530	0
0	107	535	0
0	108	540	0
0	109	545	0
0	110	550	0
0	111	555	0
0	112	560	0
0	113	565	0
0	114	570	0
0	115	575	0
0	116	580	0
0	117	585	0
0	118	590	0
0	119	595	0
0	120	600	0
0	121	605	0
0	122	610	0
0	123	615	0
0	124	620	0
0	125	625	0
0	126	630	0
0	127	635	0
0	128	640	0
0	129	645	0
0	130	650	0
0	131	655	0
0	132	660	0
0	133	665	0
0	134	670	0
0	135	675	0
0	136	680	0
0	137	685	0
0	138	690	0
0	139	695	0
0	140	700	0
0	141	705	0
0	142	710	0
0	143	715	0
0	144	720	0
0	145	725	0
0	146	730	0
0	147	735	0
0	148	740	0
0	149	745	0
0	150	750	0
0	151	755	0
0	152	760	0
0	153	765	0
0	154	770	0
0	155	775	0
0	156	780	0
0	157	785	0
0	158	790	0
0	159	795	0
0	160	800	0
0	161	805	0
0	162	810	0
0	163	815	0
0	164	820	0
0	165	825	0
0	166	830	0
0	167	835	0
0	168	840	0
0	169	845	0
0	170	850	0
0	171	855	0
0	172	860	0
0	173	865	0
0	174	870	0
0	175	875	0
0	176	880	0
0	177	885	0
0	178	890	0
0	179	895	0
0	180	900	0
0	181	905	0
0	182	910	0
0	183	915	0
0	184	920	0
0	185	925	0
0	186	930	0
0	187	935	0
0	188	940	0
0	189	945	0
0	190	950	0
0	191	955	0
0	192	960	0
0	193	965	0
0	194	970	0
0	195	975	0
0	196	980	0
0	197	985	0
0	198	990	0
0	199	995	0
0	200	1000	0
0	201	1005	0
0	202	1010	0
0	203	1015	0
0	204	1020	0
0	205	1025	0
0	206	1030	0
0	207	1035	0
0	208	1040	0
0	209	1045	0
0	210	1050	0
0	211	1055	0
0	212	1060	0
0	213	1065	0
0	214	1070	0
0	215	1075	0
0	216	1080	0
0	217	1085	0
0	218	1090	0
0	219	1095	0
0	220	1100	0
0	221	1105	0
0	222	1110	0
0	223	1115	0
0	224	1120	0
0	225	1125	0
0	226	1130	0
0	227	1135	0
0	228	1140	0
0	229	1145	0
0	230	1150	0
0	231	1155	0
0	232	1160	0
0	233	1165	0
0	234	1170	0
0	235	1175	0
0	236	1180	0
0	237	1185	0
0	238	1190	0
0	239	1195	0
0	240	1200	0
0	241	1205	0
0	242	1210	0
0	243	1215	0
0	244	1220	0
0	245	1225	0
0	246	1230	0
0	247	1235	0
0	248	1240	0
0	249	1245	0
0	250	1250	0
0	251	1255	0
0	252	1260	0
0	253	1265	0
0	254	1270	0
0	255	1275	0
0	256	1280	0
0	257	1285	0
0	258	1290	0
0	259	1295	0
0	260	1300	0
0	261	1305	0
0	262	1310	0
0	263	1315	0
0	264	1320	0
0	265	1325	0
0	266	1330	0
0	267	1335	0
0	268	1340	0
0	269	1345	0
0	270	1350	0
0	271	1355	0
0	272	1360	0
0	273	1365	0
0	274	1370	0
0	275	1375	0
0	276	1380	0
0	277	1385	0
0	278	1390	0
0	279	1395	0
0	280	1400	0
0	281	1405	0
0	282	1410	0
0	283	1415	0
0	284	1420	0
0	285	1425	0
0	286	1430	0
0	287	1435	0
0	288	1440	0
0	289	1445	0
0	290	1450	0
0	291	1455	0
0	292	1460	0
0	293	1465	0
0	294	1470	0
0	295	1475	0
0	296	1480	0
0	297	1485	0
0	298	1490	0
0	299	1495	0
0	300	1500	0
0	301	1505	0
0	302	1510	0
0	303	1515	0
0	304	1520	0
0	305	1525	0
0	306	1530	0
0	307	1535	0
0	308	1540	0
0	309	1545	0
0	310	1550	0
0	311	1555	0
0	312	1560	0
0	313	1565	0
0	314	1570	0
0	315	1575	0
0	316	1580	0
0	317	1585	0
0	318	1590	0
0	319	1595	0
0	320	1600	0
0	321	1605	0
0	322	1610	0
0	323	1615	0
0	324	1620	0
0	325	1625	0
0	326	1630	0
0	327	1635	0
0	328	1640	0
0	329	1645	0
0	330	1650	0
0	331	1655	0
0	332	1660	0
0	333	1665	0
0	334	1670	0
0	335	1675	0
0	336	1680	0
0	337	1685	0
0	338	1690	0
0	339	1695	0
0	340	1700	0
0	341	1705	0
0	342	1710	0
0	343	1715	0
0	344	1720	0
0	345	1725	0
0	346	1730	0
0	347	1735	0
0	348	1740	0
0	349	1745	0
0	350	1750	0
0	351	1755	0
0	352	1760	0
0	353	1765	0
0	354	1770	0
0	355	1775	0
0	356	1780	0
0	357	1785	0
0	358	1790	0
0	359	1795	0
0	360	1800	0
0	361	1805	0
0	362	1810	0
0	363	1815	0
0	364	1820	0
0	365	1825	0
0	366	1830	0
0	367	1835	0
0	368	1840	0
0	369	1845	0
0	370	1850	0
0	371	1855	0
0	372	1860	0
0	373	1865	0
0	374	1870	0
0	375	1875	0
0	376	1880	0
0	377	1885	0
0	378	1890	0
0	379	1895	0
0	380	1900	0
0	381	1905	0
0	382	1910	0
0	383	1915	0
0	384	1920	0
0	385	1925	0
0	386	1930	0
0	387	1935	0
0	388	1940	0
0	389	1945	0
0	390	1950	0
0	391	1955	0
0	392	1960	0
0	393	1965	0
0	394	1970	0
0	395	1975	0
0	396	1980	0
0	397	1985	0
0	398	1990	0
0	399	1995	0
0	400	2000	0
0	401	2005	0
0	402	2010	0
0	403	2015	0
0	404	2020	0
0	405	2025	0
0	406	2030	0
0	407	2035	0
0	408	2040	0
0	409	2045	0
0	410	2050	0
0	411	2055	0
0	412	2060	0
0	413	2065	0
0	414	2070	0
0	415	2075	0
0	416	2080	0
0	417	2085	0
0	418	2090	0
0	419	2095	0
0	420	2100	0
0	421	2105	0
0	422	2110	0
0	423	2115	0
0	424	2120	0
0	425	2125	0
0	426	2130	0
0	427	2135	0
0	428	2140	0
0	429	2145	0
0	430	2150	0
0	431	2155	0
0	432	2160	0
0	433	2165	0
0	434	2170	0
0	435	2175	0
0	436	2180	0
0	437	2185	0
0	438	2190	0
0	439	2195	0
0	440	2200	0
0	441	2205	0
0	442	2210	0
0	443	2215	0
0	444	2220	0
0	445	2225	0
0	446	2230	0
0	447	2235	0
0	448	2240	0
0	449	2245	0
0	450	2250	0
0	451	2255	0
0	452	2260	0
0	453	2265	0
0	454	2270	0
0	455	2275	0
0	456	2280	0
0	457	2285	0
0	458	2290	0
0	459	2295	0
0	460	2300	0
0	461	2305	0
0	462	2310	0
0	463	2315	0
0	464	2320	0
0	465	2325	0
0	466	2330	0
0	467	2335	0
0	468	2340	0
0	469	2345	0
0	470	2350	0
0	471	2355	0
0	472	2360	0
0	473	2365	0
0	474	2370	0
0	475	2375	0
0	476	2380	0
0	477	2385	0
0	478	2390	0
0	479	2395	0
0	480	2400	0
0	481	2405	0
0	482	2410	0
0	483	2415	0
0	484	2420	0
0	485	2425	0
0	486	2430	0
0	487	2435	0
0	488	2440	0
0	489	2445	0
0	490	2450	0
0	491	2455	0
0	492	2460	0
0	493	2465	0
0	494	2470	0
0	495	2475	0
0	496	2480	0
0	497	2485	0
0	498	2490	0
0	499	2495	0
0	500	2500	0
0	501	2505	0
0	502	2510	0
0	503	2515	0
0	504	2520	0
0	505	2525	0
0	506	2530	0
0	507	2535	0
0	508	2540	0
0	509	2545	0
0	510	2550	0
0	511	2555	0
0	512	2560	0
0	513	2565	0
0	514	2570	0
0	515	2575	0
0	516	2580	0
0	517	2585	0
0	518	2590	0
0	519	2595	0
0	520	2600	0
0	521	2605	0
0	522	2610	0
0	523	2615	0
0	524	2620	0
0	525	2625	0
0	526	2630	0
0	527	2635	0
0	528	2640	0
0	529	2645	0
0	530	2650	0
0	531	2655	0
0	532	2660	0
0	533	2665	0
0	534	2670	0
0	535	2675	0
0	536	2680	0
0	537	2685	0
0	538	2690	0
0	539	2695	0
0	540	2700	0
0	541	2705	0
0	542	2710	0
0	543	2715	0
0	544	2720	0
0	545	2725	0
0	546	2730	0
0	547	2735	0
0	548	2740	0
0	549	2745	0
0	550	2750	0
0	551	2755	0
0	552	2760	0
0	553	2765	0
0	554	2770	0
0	555	2775	0
0	556	2780	0
0	557	2785	0
0	558	2790	0
0	559	2795	0
0	560	2800	0
0	561	2805	0
0	562	2810	0
0	563	2815	0
0	564	2820	0
0	565	2825	0
0	566	2830	0
0	567	2835	0
0	568	2840	0
0	569	2845	0
0	570	2850	0
0	571	2855	0
0	572	2860	0
0	573	2865	0
0	574	2870	0
0	575	2875	0
0	576	2880	0
0	577	2885	0
0	578	2890	0
0	579	2895	0
0	580	2900	0
0	581	2905	0
0	582	2910	0
0	583	2915	0
0	584	2920	0
0	585	2925	0
0	586	2930	0
0	587	2935	0
0	588	2940	0
0	589	2945	0
0	590	2950	0
0	591	2955	0
0	592	2960	0
0	593	2965	0
0	594	2970	0
0	595	2975	0
0	596	2980	0
0	597	2985	0
0	598	2990	0
0	599	2995	0
0	600	3000	0
0	601	3005	0
0	602	3010	0
0	603	3015	0
0	604	3020	0
0	605	3025	0
0	606	3030	0
0	607	3035	0
0	608	3040	0
0	609	3045	0
0	610	3050	0
0	611	3055	0
0	612	3060	0
0	613	3065	0
0	614	3070	0
0	615	3075	0
0	616	3080	0
0	617	3085	0
0	618	3090	0
0	619	3095	0
0	620	3100	0
0	621	3105	0
0	622	3110	0
0	623	3115	0
0	624	3120	0
0	625	3125	0
0	626	3130	0
0	627	3135	0
0	628	3140	0
0	629	3145	0
0	630	3150	0
0	631	3155	0
0	632	3160	0
0	633	3165	0
0	634	3170	0
0	635	3175	0
0	636	3180	0
0	637	3185	0
0	638	3190	0
0	639	3195	0
0	640	3200	0
0	641	3205	0
0	642	3210	0
0	643	3215	0
0	644	3220	0
0	645	3225	0
0	646	3230	0
0	647	3235	0
0	648	3240	0
0	649	3245	0
0	650	3250	0
0	651	3255	0
0	652	3260	0
0	653	3265	0
0	654	3270	0
0	655	3275	0
0	656	3280	0
0	657	3285	0
0	658	3290	0
0	659	3295	0
0	660	3300	0
0	661	3305	0
0	662	3310	0
0	663	3315	0
0	664	3320	0
0	665	3325	0
0	666	3330	0
0	667	3335	0
0	668	3340	0
0	669	3345	0
0	670	3350	0
0	671	3355	0
0	672	3360	0
0	673	3365	0
0	674	3370	0
0	675	3375	0
0	676	3380	0
0	677	3385	0
0	678	3390	0
0	679	3395	0
0	680	3400	0
0	681	3405	0
0	682	3410	0
0	683	3415	0
0	684	3420	0
0	685	3425	0
0	686	3430	0
0	687	3435	0
0	688	3440	0
0	689	3445	0
0	690	3450	0
0	691	3455	0
0	692	3460	0
0	693	3465	0
0	694	3470	0
0	695	3475	0
0	696	3480	0
0	697	3485	0
0	698	3490	0
0	699	3495	0
0	700	3500	0
0	701	3505	0
0	702	3510	0
0	703	3515	0
0	704	3520	0
0	705	3525	0
0	706	3530	0
0	707	3535	0
0	708	3540	0
0	709	3545	0
0	710	3550	0
0	711	3555	0
0	712	3560	0
0	713	3565	0
0	714	3570	0
0	715	3575	0
0	716	3580	0
0	717	3585	0
0	718	3590	0
0	719	3595	0
0	720	3600	0

