version 2
run DegeneracyTest3-0-20201214-14:44:44-9278
attr configname DegeneracyTest3
attr datetime 20201214-14:44:44
attr experiment DegeneracyTest3
attr inifile omnetpp.ini
attr iterationvars ""
attr iterationvarsf ""
attr measurement ""
attr network slottedNetwork
attr processid 9278
attr repetition 0
attr replication #0
attr resultdir results
attr runnumber 0
attr seedset 0
param **.bufferSize 0
param **.numTransmitters 1
param **.numChannels 1
param **.bufferSize 5
param **.sendProbability 1
param **.expMean 5s
param **.timeSlotSize 5s
param **.thresh 20s
param **.deterministicInterarrivalTime false

vector 0 slottedNetwork.transmitters[0] numPacketCreated:vector ETV
attr source numPacketCreatedSignal
vector 1 slottedNetwork.transmitters[0] numPacketDiscarded:vector ETV
attr source numPacketDiscardedSignal
vector 2 slottedNetwork.ch throughput:vector ETV
attr source throughputSignal
0	1	3.979372522829	1
0	4	8.472174465249	1
0	7	14.751828255486	1
0	12	24.049849315859	1
0	15	28.665964973213	1
0	20	38.423691652635	1
0	23	42.359697352545	1
0	28	51.754517623559	1
0	29	54.509760056911	1
0	32	59.394792188878	1
0	35	64.585588692197	1
0	38	67.011229510805	1
0	39	69.88882549522	1
0	42	71.654621190908	1
0	47	82.77224330109	1
0	48	83.064166646555	1
0	55	99.638728046196	1
0	58	101.230508750405	1
0	59	103.648519275147	1
0	62	106.895751016401	1
0	65	114.740231604516	1
0	70	123.101287606141	1
0	73	126.864658172705	1
0	76	130.134071008811	1
0	77	134.331235273312	1
0	80	136.825595318391	1
0	85	149.816865747636	1
0	90	158.858712069011	1
0	91	159.227138846336	1
0	94	161.285028827549	1
0	95	161.74083395817	1
0	98	166.96389649971	1
0	99	167.066024441705	1
0	100	169.362265127981	1
0	105	178.299703445174	1
0	112	194.050553088554	1
0	117	201.579474381741	1
0	118	202.335628650066	1
0	123	212.537199939775	1
0	128	222.741661019334	1
0	137	241.967770365043	1
0	140	245.176316228434	1
0	143	253.202514013742	1
0	148	261.272524388205	1
0	149	264.367171686339	1
0	152	268.041993792288	1
0	157	275.624673662239	1
0	160	281.30436837079	1
0	161	281.93374041798	1
0	164	288.309878929098	1
0	167	293.417038300844	1
0	170	297.778644276055	1
0	171	298.552292678555	1
0	174	302.406465970892	1
0	181	316.878568360827	1
0	184	323.985391761296	1
0	187	327.674528220076	1
0	188	328.234259023239	1
0	191	330.912087624378	1
0	192	334.120561134534	1
0	195	335.656962895297	1
0	196	336.687979305449	1
0	199	344.129253434207	1
0	204	350.805704357327	1
0	205	353.851116473242	1
0	208	355.071358926925	1
0	209	359.273032454986	1
0	210	359.999422591447	1
0	213	360.094265437452	1
0	214	362.053119490836	1
0	217	366.860024186165	1
0	218	367.670706633395	1
0	221	372.40569001927	1
0	222	373.662899679644	1
0	225	378.460639566485	1
0	228	380.903424813025	1
0	235	395.292999919413	1
0	240	406.937566790484	1
0	243	412.663261563984	1
0	246	415.651991948076	1
0	247	417.879584423332	1
0	250	422.627057340816	1
0	253	425.499719374522	1
0	258	437.131474682994	1
0	261	443.112013680279	1
0	262	443.634819809155	1
0	263	443.945396261487	1
0	272	461.44646468376	1
0	275	466.941027021515	1
0	278	472.235197678953	1
0	281	477.788184907389	1
0	282	478.725315237478	1
0	283	479.906348767892	1
0	286	482.123368910995	1
0	287	482.813512353137	1
0	290	489.758725802092	1
0	293	491.653535623505	1
0	296	496.333843422362	1
0	297	498.594353723485	1
0	300	500.559916510005	1
0	301	504.782055477643	1
0	302	504.977971259708	1
0	305	507.864592813741	1
0	308	512.893947839574	1
0	319	535.166432070454	1
0	326	551.131165280722	1
0	327	551.669340821502	1
0	330	556.958472888263	1
0	331	558.129980482141	1
0	334	563.170076709242	1
0	335	564.04964443637	1
0	348	590.850146187586	1
0	351	596.143859763057	1
0	354	600.503439031186	1
0	355	601.963841697522	1
0	356	604.639165082938	1
0	359	607.778872987894	1
0	362	610.997777995907	1
0	363	612.399163038302	1
0	366	617.283483408655	1
0	367	618.149120689386	1
0	370	620.211626838998	1
0	371	620.79640388796	1
0	374	626.412245395627	1
0	377	631.752606381375	1
0	378	633.660385598246	1
0	379	634.403946944507	1
0	384	641.93712361087	1
0	385	643.031526593406	1
0	392	657.967476052666	1
0	395	660.267545841367	1
0	398	665.698892745758	1
0	401	674.300551034341	1
0	402	674.368873926495	1
0	403	674.87959833412	1
0	406	679.755108004902	1
0	411	688.854202601324	1
0	414	694.453274430094	1
0	415	694.958448306639	1
0	424	712.826390168361	1
0	433	731.571547466283	1
0	438	742.098153970244	1
0	441	745.259836952223	1
0	442	748.822754918889	1
0	451	767.632391341409	1
0	452	767.919025973528	1
0	455	772.561418458035	1
0	458	775.56115289124	1
0	461	782.282379252002	1
0	462	782.383329892733	1
0	463	782.583211388024	1
0	466	785.497603332359	1
0	467	787.159654537178	1
0	476	806.617505151405	1
0	477	807.257788977961	1
0	478	809.48488628756	1
0	481	811.240766734467	1
0	482	814.518998156285	1
0	485	815.150941338412	1
0	488	820.985308971155	1
0	489	822.898813715464	1
0	494	833.519999700472	1
0	497	836.194421579256	1
0	502	848.713980494682	1
0	503	849.045467502093	1
0	506	850.267444742502	1
0	509	856.163392377828	1
0	512	860.327609958159	1
0	513	864.50809761801	1
0	518	874.524300230546	1
0	521	876.066374431035	1
0	522	879.622614117121	1
0	525	883.326408869356	1
0	532	895.75432065424	1
0	533	896.247572196331	1
0	538	908.949094736125	1
0	541	913.238572941496	1
0	542	913.672425353194	1
0	549	926.918704996576	1
0	550	928.545407074221	1
0	553	930.463208144714	1
0	554	930.510211898034	1
0	557	936.014441448488	1
0	562	945.251079703497	1
0	563	945.957733271301	1
0	566	951.166636542198	1
0	569	957.466305592743	1
0	574	966.672717950178	1
0	575	968.380988785309	1
0	576	969.918577404121	1
0	579	970.930329596957	1
0	580	973.46633021324	1
0	583	977.881975423036	1
0	586	981.905962422043	1
0	587	982.007524716021	1
0	588	982.908785975945	1
0	593	991.73749133801	1
0	594	994.046145818232	1
0	595	994.069678520694	1
0	596	994.861386051847	1
0	601	1000.524556761709	1
0	602	1004.739971922451	1
0	605	1006.313580226724	1
0	608	1012.396123493907	1
0	611	1019.039912862658	1
0	614	1020.741646553834	1
0	621	1037.117362442408	1
0	622	1039.956883209809	1
0	625	1041.386988072349	1
0	628	1048.442110118821	1
0	631	1052.734074957966	1
0	634	1055.255793990905	1
0	635	1059.738748344834	1
0	642	1071.057416224138	1
0	645	1075.30352028196	1
0	648	1080.396813932054	1
0	649	1081.65891389651	1
0	654	1092.766448388881	1
0	661	1108.027856673303	1
0	664	1113.725896490968	1
0	667	1116.689016628229	1
0	668	1119.670913599877	1
0	673	1129.038212999163	1
0	682	1148.253245915381	1
0	685	1154.264438751614	1
0	686	1154.882071988425	1
0	689	1156.647172654796	1
0	692	1163.931265447617	1
0	697	1172.335876470347	1
0	698	1174.98948895343	1
0	701	1177.514582692203	1
0	704	1183.140992776422	1
0	709	1193.788489756762	1
0	712	1195.225542137112	1
0	713	1199.578221268744	1
0	716	1201.456915480778	1
0	721	1212.131067730694	1
0	728	1228.95291999595	1
0	731	1234.849834664173	1
0	734	1239.289141716357	1
0	739	1245.74868806036	1
0	742	1251.137862481042	1
0	743	1254.616859785544	1
0	746	1258.426198642024	1
0	753	1274.053540430315	1
0	756	1275.363826638692	1
0	759	1280.527811691919	1
0	760	1283.039365683224	1
0	763	1285.796345633895	1
0	766	1290.618613461364	1
0	769	1295.280627863397	1
0	770	1298.50115140501	1
0	771	1298.59805031175	1
0	774	1301.773688889904	1
0	775	1303.568324969253	1
0	778	1309.863542555572	1
0	783	1315.26014354885	1
0	784	1316.958467211762	1
0	785	1318.671465335252	1
0	788	1321.089643768199	1
0	791	1325.901519047054	1
0	794	1332.816415079738	1
0	797	1335.616220430108	1
0	802	1346.15345845486	1
0	803	1346.881328347099	1
0	804	1347.424063839573	1
0	805	1349.1951845008	1
0	806	1349.679798273684	1
0	809	1353.899240636638	1
0	812	1356.084380705508	1
0	815	1360.553026097036	1
0	816	1364.565786025829	1
0	819	1368.836184704044	1
0	820	1369.007201795834	1
0	823	1374.30224872274	1
0	832	1391.664926119152	1
0	835	1396.944174162451	1
0	836	1398.879824623196	1
0	839	1401.7028771288	1
0	840	1402.953284603689	1
0	845	1414.296454567151	1
0	848	1415.057922693423	1
0	849	1417.348787113214	1
0	850	1417.860390187477	1
0	853	1420.722697944619	1
0	862	1441.411746747171	1
0	867	1452.536320033298	1
0	868	1454.044149599415	1
0	873	1462.248637489049	1
0	876	1466.09902178678	1
0	879	1472.184119263467	1
0	882	1475.154486755086	1
0	883	1475.68254997323	1
0	884	1476.206959151232	1
0	889	1488.803369801648	1
0	892	1490.975098081367	1
0	895	1497.238135705925	1
0	898	1500.405448794538	1
0	911	1534.232401394223	1
0	916	1543.43106531961	1
0	917	1544.240415753171	1
0	924	1555.991302201925	1
0	929	1566.120846287441	1
0	930	1566.312260851865	1
0	931	1567.198888727591	1
0	934	1570.748478363711	1
0	937	1575.528310483323	1
0	938	1576.441003492736	1
0	939	1577.101922040809	1
0	942	1584.651039318856	1
0	947	1594.070683751786	1
0	952	1604.080616229416	1
0	957	1612.31421173605	1
0	958	1614.964226126733	1
0	961	1619.173630935393	1
0	962	1619.927585986362	1
0	965	1622.541936136804	1
0	966	1622.710870064564	1
0	967	1623.069246986128	1
0	976	1643.318481180151	1
0	979	1649.295674011562	1
0	982	1651.632036843612	1
0	983	1654.65353220285	1
0	986	1657.377817843573	1
0	989	1663.779488862635	1
0	990	1664.03905162355	1
0	995	1674.102915304579	1
0	998	1676.377474528538	1
0	1005	1694.927277488057	1
0	1008	1695.011116318018	1
0	1011	1704.694002505474	1
0	1014	1706.005649051305	1
0	1015	1706.064565210897	1
0	1018	1713.303535620839	1
0	1021	1715.534799723434	1
0	1026	1729.957858483946	1
0	1031	1736.50435030406	1
0	1034	1743.435807064166	1
0	1035	1744.377281940262	1
0	1038	1746.450344653557	1
0	1041	1750.13100015349	1
0	1042	1753.493302737658	1
0	1043	1753.772653002101	1
0	1046	1755.842547615464	1
0	1047	1756.958243655968	1
0	1048	1757.947391193263	1
0	1049	1758.040868545368	1
0	1050	1758.978463301382	1
0	1055	1766.870526911912	1
0	1056	1769.983513631804	1
0	1059	1771.251042157521	1
0	1064	1781.631197459735	1
0	1065	1783.749482966519	1
0	1072	1798.172204408553	1
0	1079	1811.333298721297	1
0	1082	1816.018992309914	1
0	1085	1822.112976326631	1
0	1088	1826.652796463254	1
0	1089	1826.81458048648	1
0	1092	1834.468736617817	1
0	1095	1835.368523325576	1
0	1096	1838.834522173264	1
0	1099	1843.691932963739	1
0	1100	1843.950347492716	1
0	1103	1848.254965676119	1
0	1106	1854.259820208829	1
0	1109	1855.618160560541	1
0	1120	1880.013825000509	1
0	1125	1893.620566280074	1
0	1128	1895.175405304923	1
0	1129	1899.934553842634	1
0	1134	1905.61753631892	1
0	1135	1909.452934591782	1
0	1140	1919.438794429232	1
0	1143	1923.895687313782	1
0	1148	1930.84407263266	1
0	1151	1937.392999489468	1
0	1158	1954.082671158737	1
0	1161	1955.952103638253	1
0	1162	1959.99200390525	1
0	1165	1962.531329518683	1
0	1166	1963.725093882922	1
0	1167	1964.902716750015	1
0	1170	1966.160709815579	1
0	1171	1967.190870057994	1
0	1172	1968.425166401988	1
0	1179	1982.870544361482	1
0	1182	1987.085438238554	1
0	1185	1993.812175404724	1
0	1188	1996.820570337346	1
0	1191	2000.191793185527	1
0	1198	2017.76418658821	1
0	1199	2019.05425040791	1
0	1202	2024.759939922207	1
0	1205	2026.227478181823	1
0	1206	2026.673249631799	1
0	1207	2026.972154446376	1
0	1208	2027.262516256956	1
0	1211	2030.112004083488	1
0	1212	2033.457572701938	1
0	1215	2035.32592167391	1
0	1220	2045.969272146567	1
0	1223	2051.928562664841	1
0	1232	2070.662035733967	1
0	1233	2073.034117185632	1
0	1236	2077.841315043488	1
0	1237	2078.831153720158	1
0	1240	2082.741032324536	1
0	1241	2082.8659740911	1
0	1246	2092.507774775499	1
0	1247	2092.855863130867	1
0	1250	2099.665521752395	1
0	1255	2105.353214280098	1
0	1256	2108.609367939686	1
0	1259	2111.632274031362	1
0	1262	2117.284051760915	1
0	1265	2121.129650766397	1
0	1268	2125.799952429423	1
0	1273	2137.149152508344	1
0	1276	2143.420168858799	1
0	1287	2166.618431490668	1
0	1288	2169.788081587639	1
0	1291	2171.010536697854	1
0	1292	2174.05470126654	1
0	1295	2179.494223434612	1
0	1302	2191.338814288797	1
0	1303	2192.866838797869	1
0	1304	2193.604818962325	1
0	1305	2193.709155055376	1
0	1308	2195.010912113112	1
0	1311	2202.112829391038	1
0	1316	2212.780645828413	1
0	1317	2214.709084298639	1
0	1324	2226.448303105786	1
0	1325	2228.866495043234	1
0	1328	2234.05574542068	1
0	1331	2238.493255063099	1
0	1334	2240.456120204037	1
0	1337	2249.346836888207	1
0	1340	2253.013675254047	1
0	1343	2257.971196718533	1
0	1344	2257.971473478009	1
0	1349	2268.275579682413	1
0	1352	2270.144396151496	1
0	1353	2271.74226942586	1
0	1354	2274.5131235711	1
0	1359	2282.5117207803	1
0	1364	2293.340539184673	1
0	1365	2294.367278028351	1
0	1370	2300.062566281715	1
0	1377	2315.328489629682	1
0	1378	2318.373712693226	1
0	1381	2324.189279110353	1
0	1384	2327.491794509099	1
0	1385	2328.705386977458	1
0	1390	2336.478701666502	1
0	1397	2351.201103053618	1
0	1398	2352.5043037005	1
0	1401	2359.066843665328	1
0	1406	2369.680576935038	1
0	1409	2371.145334227471	1
0	1410	2373.027480985078	1
0	1411	2374.227098582259	1
0	1420	2390.012576289337	1
0	1421	2393.663714615532	1
0	1424	2396.854657643496	1
0	1425	2396.984646369462	1
0	1428	2403.201400259205	1
0	1429	2404.364025351129	1
0	1432	2405.198398557293	1
0	1433	2407.962590410552	1
0	1436	2414.517452251354	1
0	1439	2416.860834631239	1
0	1442	2422.056862814146	1
0	1445	2425.17100936297	1
0	1446	2426.380607586826	1
0	1447	2428.006687676707	1
0	1448	2429.038477644732	1
0	1451	2433.457405924897	1
0	1456	2441.697786790702	1
0	1461	2451.667982797087	1
0	1464	2458.541382566096	1
0	1465	2459.166545515713	1
0	1468	2464.783848013453	1
0	1471	2468.426467227125	1
0	1474	2470.047462794557	1
0	1475	2470.755672968533	1
0	1476	2471.716980172744	1
0	1479	2478.02604354018	1
0	1482	2484.121040266087	1
0	1485	2486.642439932344	1
0	1486	2489.75262452775	1
0	1489	2493.91951573098	1
0	1494	2503.095832745678	1
0	1495	2504.108126564168	1
0	1498	2505.254348190203	1
0	1499	2506.036727042125	1
0	1500	2506.938098540016	1
0	1503	2510.285801494321	1
0	1504	2510.952504610684	1
0	1505	2513.149781563148	1
0	1508	2519.551903333042	1
0	1515	2533.655083075117	1
0	1516	2533.80971453292	1
0	1521	2541.057488415058	1
0	1524	2547.92920348716	1
0	1527	2554.834018965494	1
0	1530	2555.319857357329	1
0	1535	2567.022317160616	1
0	1536	2568.248307623828	1
0	1537	2568.68385054012	1
0	1542	2575.600432870876	1
0	1543	2579.617391684212	1
0	1548	2586.195522975696	1
0	1551	2590.586598369287	1
0	1552	2590.820037087509	1
0	1559	2607.162519091624	1
0	1560	2608.335798337906	1
0	1563	2610.06339625645	1
0	1564	2611.754169830672	1
0	1565	2613.131809515864	1
0	1568	2618.786401911807	1
0	1569	2619.31483778233	1
0	1570	2619.640402106263	1
0	1571	2619.723232578371	1
0	1574	2623.778937689511	1
0	1581	2637.041730267113	1
0	1582	2637.088145389003	1
0	1585	2642.630194160073	1
0	1590	2651.580142182479	1
0	1593	2659.269285754862	1
0	1604	2680.049141232678	1
0	1605	2681.703690638559	1
0	1608	2687.782143005352	1
0	1611	2692.196545730138	1
0	1612	2693.198756705567	1
0	1613	2693.529216759034	1
0	1616	2697.120449159574	1
0	1619	2700.444487907332	1
0	1620	2704.787316564661	1
0	1629	2723.7574354801	1
0	1634	2731.502493875875	1
0	1639	2741.960276738991	1
0	1642	2746.623336015335	1
0	1643	2748.686985348969	1
0	1644	2749.919064460033	1
0	1653	2766.213669345956	1
0	1654	2769.250065789053	1
0	1657	2770.567951353229	1
0	1662	2781.122395225143	1
0	1669	2796.033398602506	1
0	1670	2799.422408612781	1
0	1677	2813.605609579658	1
0	1680	2819.891794557511	1
0	1685	2827.91908837285	1
0	1688	2831.248300806035	1
0	1691	2836.225619022868	1
0	1694	2842.390021338022	1
0	1699	2852.758828653522	1
0	1702	2856.206001342762	1
0	1703	2857.939767861706	1
0	1708	2867.246926076616	1
0	1713	2876.697434567097	1
0	1714	2877.777915650068	1
0	1717	2882.587975283018	1
0	1722	2890.009187696268	1
0	1723	2890.07581392041	1
0	1730	2908.374100574235	1
0	1733	2910.506779634417	1
0	1738	2920.420524157434	1
0	1739	2921.222194629867	1
0	1742	2928.802539278992	1
0	1751	2948.842287553364	1
0	1760	2969.851584684603	1
0	1763	2973.105571396399	1
0	1768	2980.108949881201	1
0	1769	2983.548667273506	1
0	1770	2983.568948880111	1
0	1773	2988.669884319885	1
0	1776	2990.239873810202	1
0	1777	2992.538830399081	1
0	1780	2995.18116654059	1
0	1781	2995.917291727155	1
0	1782	2998.71233007711	1
0	1787	3007.345496975821	1
0	1788	3009.113479852136	1
0	1791	3010.166146293157	1
0	1792	3012.729719506305	1
0	1795	3016.309946096273	1
0	1796	3016.952847282654	1
0	1797	3018.222904174405	1
0	1806	3037.9610705122	1
0	1807	3038.475912330796	1
0	1810	3041.08130643622	1
0	1815	3050.990758141764	1
0	1818	3055.201439655951	1
0	1825	3073.24614468087	1
0	1828	3075.351111171115	1
0	1835	3091.550926005619	1
0	1838	3099.327397807392	1
0	1845	3111.179335710462	1
0	1846	3113.829143606822	1
0	1851	3121.26629237852	1
0	1852	3123.492039075552	1
0	1855	3125.517953487264	1
0	1856	3128.067907656511	1
0	1857	3128.49080511532	1
0	1860	3130.287274640951	1
0	1861	3132.90211290923	1
0	1866	3140.365273730192	1
0	1867	3141.686626050871	1
0	1872	3154.719485062476	1
0	1875	3155.430112619439	1
0	1876	3157.397624675052	1
0	1877	3157.672161537807	1
0	1884	3172.946460432843	1
0	1887	3179.412199726822	1
0	1888	3179.482432683034	1
0	1889	3179.539898934077	1
0	1892	3183.352017355151	1
0	1897	3190.713038145119	1
0	1898	3192.529249239628	1
0	1899	3193.323915137909	1
0	1904	3204.045842460476	1
0	1905	3204.460153825069	1
0	1908	3205.90271737681	1
0	1909	3206.372090113223	1
0	1912	3212.028983951245	1
0	1915	3217.60342106078	1
0	1920	3225.918249964151	1
0	1921	3227.325870076506	1
0	1924	3230.15534278468	1
0	1925	3232.883631358517	1
0	1928	3239.857976814833	1
0	1931	3243.933068469314	1
0	1936	3252.781167585364	1
0	1941	3262.631455413326	1
0	1944	3265.013848326315	1
0	1947	3271.506076504338	1
0	1948	3272.013746924045	1
0	1949	3273.589547067624	1
0	1952	3275.069056433864	1
0	1953	3275.773895855939	1
0	1956	3280.255541881042	1
0	1957	3280.540374543376	1
0	1958	3283.776248063591	1
0	1961	3285.571054655474	1
0	1962	3288.917569015404	1
0	1965	3290.437426811548	1
0	1966	3293.504622259509	1
0	1969	3296.549944536127	1
0	1972	3300.267860495008	1
0	1975	3306.016567433757	1
0	1976	3308.933686288934	1
0	1979	3314.881167545609	1
0	1984	3324.455378833822	1
0	1987	3326.122395525699	1
0	1988	3328.963247944411	1
0	1991	3331.352837881967	1
0	1996	3340.121411107085	1
0	1997	3341.120688796688	1
0	1998	3344.680729124812	1
0	2003	3352.449456634973	1
0	2004	3352.901142855381	1
0	2005	3353.193782350114	1
0	2008	3358.588416892612	1
0	2011	3364.558483745588	1
0	2014	3365.715588605364	1
0	2017	3373.256664763499	1
0	2022	3382.652256934549	1
0	2027	3390.164320903103	1
0	2030	3395.882774006036	1
0	2031	3397.384399407464	1
0	2032	3398.366708836948	1
0	2035	3400.707241103122	1
0	2036	3401.069336653695	1
0	2039	3405.498139883844	1
0	2040	3405.546816930547	1
0	2041	3407.139736169942	1
0	2046	3418.270156117151	1
0	2049	3420.587106254851	1
0	2050	3421.30337136176	1
0	2051	3422.400712166229	1
0	2054	3429.953020172349	1
0	2057	3433.03261659127	1
0	2064	3445.994859635187	1
0	2065	3446.223049882665	1
0	2068	3452.502517304367	1
0	2073	3460.544606549796	1
0	2074	3463.919361418062	1
0	2075	3464.319755697782	1
0	2078	3467.48941633024	1
0	2081	3471.147143025903	1
0	2086	3481.862641528052	1
0	2087	3483.694897987215	1
0	2090	3487.046057370095	1
0	2093	3491.354394829071	1
0	2094	3494.031416584538	1
0	2103	3510.055460732597	1
0	2104	3511.011940962089	1
0	2107	3516.198166432603	1
0	2108	3519.422708888433	1
0	2109	3519.60272303718	1
0	2114	3527.256965131897	1
0	2117	3530.071091140983	1
0	2118	3534.135582946911	1
0	2121	3537.702504360915	1
0	2122	3538.573480162786	1
0	2125	3542.414746872123	1
0	2126	3543.191174799648	1
0	2129	3548.910151695242	1
0	2132	3554.151597220023	1
0	2135	3555.777451572466	1
0	2136	3559.651663469986	1
0	2139	3560.341429629633	1
0	2140	3562.311717489368	1
0	2141	3564.805179153718	1
0	2144	3565.600239237715	1
0	2151	3581.264386685448	1
0	2152	3582.135380268363	1
0	2153	3583.171306179619	1
0	2154	3583.864240286734	1
0	2161	3595.580439937197	1
0	2162	3599.905130484343	1
1	1	3.979372522829	1
1	4	8.472174465249	1
1	7	14.751828255486	1
1	12	24.049849315859	1
1	15	28.665964973213	1
1	20	38.423691652635	1
1	23	42.359697352545	1
1	28	51.754517623559	1
1	29	54.509760056911	1
1	32	59.394792188878	1
1	35	64.585588692197	1
1	38	67.011229510805	1
1	39	69.88882549522	1
1	42	71.654621190908	1
1	47	82.77224330109	1
1	48	83.064166646555	1
1	55	99.638728046196	1
1	58	101.230508750405	1
1	59	103.648519275147	1
1	62	106.895751016401	1
1	65	114.740231604516	1
1	70	123.101287606141	1
1	73	126.864658172705	1
1	76	130.134071008811	1
1	77	134.331235273312	1
1	80	136.825595318391	1
1	85	149.816865747636	1
1	90	158.858712069011	1
1	91	159.227138846336	1
1	94	161.285028827549	1
1	95	161.74083395817	1
1	98	166.96389649971	1
1	99	167.066024441705	1
1	100	169.362265127981	1
1	105	178.299703445174	1
1	112	194.050553088554	1
1	117	201.579474381741	1
1	118	202.335628650066	1
1	123	212.537199939775	1
1	128	222.741661019334	1
1	137	241.967770365043	1
1	140	245.176316228434	1
1	143	253.202514013742	1
1	148	261.272524388205	1
1	149	264.367171686339	1
1	152	268.041993792288	1
1	157	275.624673662239	1
1	160	281.30436837079	1
1	161	281.93374041798	1
1	164	288.309878929098	1
1	167	293.417038300844	1
1	170	297.778644276055	1
1	171	298.552292678555	1
1	174	302.406465970892	1
1	181	316.878568360827	1
1	184	323.985391761296	1
1	187	327.674528220076	1
1	188	328.234259023239	1
1	191	330.912087624378	1
1	192	334.120561134534	1
1	195	335.656962895297	1
1	196	336.687979305449	1
1	199	344.129253434207	1
1	204	350.805704357327	1
1	205	353.851116473242	1
1	208	355.071358926925	1
1	209	359.273032454986	1
1	210	359.999422591447	1
1	213	360.094265437452	1
1	214	362.053119490836	1
1	217	366.860024186165	1
1	218	367.670706633395	1
1	221	372.40569001927	1
1	222	373.662899679644	1
1	225	378.460639566485	1
1	228	380.903424813025	1
1	235	395.292999919413	1
1	240	406.937566790484	1
1	243	412.663261563984	1
1	246	415.651991948076	1
1	247	417.879584423332	1
1	250	422.627057340816	1
1	253	425.499719374522	1
1	258	437.131474682994	1
1	261	443.112013680279	1
1	262	443.634819809155	1
1	263	443.945396261487	1
1	272	461.44646468376	1
1	275	466.941027021515	1
1	278	472.235197678953	1
1	281	477.788184907389	1
1	282	478.725315237478	1
1	283	479.906348767892	1
1	286	482.123368910995	1
1	287	482.813512353137	1
1	290	489.758725802092	1
1	293	491.653535623505	1
1	296	496.333843422362	1
1	297	498.594353723485	1
1	300	500.559916510005	1
1	301	504.782055477643	1
1	302	504.977971259708	1
1	305	507.864592813741	1
1	308	512.893947839574	1
1	319	535.166432070454	1
1	326	551.131165280722	1
1	327	551.669340821502	1
1	330	556.958472888263	1
1	331	558.129980482141	1
1	334	563.170076709242	1
1	335	564.04964443637	1
1	348	590.850146187586	1
1	351	596.143859763057	1
1	354	600.503439031186	1
1	355	601.963841697522	1
1	356	604.639165082938	1
1	359	607.778872987894	1
1	362	610.997777995907	1
1	363	612.399163038302	1
1	366	617.283483408655	1
1	367	618.149120689386	1
1	370	620.211626838998	1
1	371	620.79640388796	1
1	374	626.412245395627	1
1	377	631.752606381375	1
1	378	633.660385598246	1
1	379	634.403946944507	1
1	384	641.93712361087	1
1	385	643.031526593406	1
1	392	657.967476052666	1
1	395	660.267545841367	1
1	398	665.698892745758	1
1	401	674.300551034341	1
1	402	674.368873926495	1
1	403	674.87959833412	1
1	406	679.755108004902	1
1	411	688.854202601324	1
1	414	694.453274430094	1
1	415	694.958448306639	1
1	424	712.826390168361	1
1	433	731.571547466283	1
1	438	742.098153970244	1
1	441	745.259836952223	1
1	442	748.822754918889	1
1	451	767.632391341409	1
1	452	767.919025973528	1
1	455	772.561418458035	1
1	458	775.56115289124	1
1	461	782.282379252002	1
1	462	782.383329892733	1
1	463	782.583211388024	1
1	466	785.497603332359	1
1	467	787.159654537178	1
1	476	806.617505151405	1
1	477	807.257788977961	1
1	478	809.48488628756	1
1	481	811.240766734467	1
1	482	814.518998156285	1
1	485	815.150941338412	1
1	488	820.985308971155	1
1	489	822.898813715464	1
1	494	833.519999700472	1
1	497	836.194421579256	1
1	502	848.713980494682	1
1	503	849.045467502093	1
1	506	850.267444742502	1
1	509	856.163392377828	1
1	512	860.327609958159	1
1	513	864.50809761801	1
1	518	874.524300230546	1
1	521	876.066374431035	1
1	522	879.622614117121	1
1	525	883.326408869356	1
1	532	895.75432065424	1
1	533	896.247572196331	1
1	538	908.949094736125	1
1	541	913.238572941496	1
1	542	913.672425353194	1
1	549	926.918704996576	1
1	550	928.545407074221	1
1	553	930.463208144714	1
1	554	930.510211898034	1
1	557	936.014441448488	1
1	562	945.251079703497	1
1	563	945.957733271301	1
1	566	951.166636542198	1
1	569	957.466305592743	1
1	574	966.672717950178	1
1	575	968.380988785309	1
1	576	969.918577404121	1
1	579	970.930329596957	1
1	580	973.46633021324	1
1	583	977.881975423036	1
1	586	981.905962422043	1
1	587	982.007524716021	1
1	588	982.908785975945	1
1	593	991.73749133801	1
1	594	994.046145818232	1
1	595	994.069678520694	1
1	596	994.861386051847	1
1	601	1000.524556761709	1
1	602	1004.739971922451	1
1	605	1006.313580226724	1
1	608	1012.396123493907	1
1	611	1019.039912862658	1
1	614	1020.741646553834	1
1	621	1037.117362442408	1
1	622	1039.956883209809	1
1	625	1041.386988072349	1
1	628	1048.442110118821	1
1	631	1052.734074957966	1
1	634	1055.255793990905	1
1	635	1059.738748344834	1
1	642	1071.057416224138	1
1	645	1075.30352028196	1
1	648	1080.396813932054	1
1	649	1081.65891389651	1
1	654	1092.766448388881	1
1	661	1108.027856673303	1
1	664	1113.725896490968	1
1	667	1116.689016628229	1
1	668	1119.670913599877	1
1	673	1129.038212999163	1
1	682	1148.253245915381	1
1	685	1154.264438751614	1
1	686	1154.882071988425	1
1	689	1156.647172654796	1
1	692	1163.931265447617	1
1	697	1172.335876470347	1
1	698	1174.98948895343	1
1	701	1177.514582692203	1
1	704	1183.140992776422	1
1	709	1193.788489756762	1
1	712	1195.225542137112	1
1	713	1199.578221268744	1
1	716	1201.456915480778	1
1	721	1212.131067730694	1
1	728	1228.95291999595	1
1	731	1234.849834664173	1
1	734	1239.289141716357	1
1	739	1245.74868806036	1
1	742	1251.137862481042	1
1	743	1254.616859785544	1
1	746	1258.426198642024	1
1	753	1274.053540430315	1
1	756	1275.363826638692	1
1	759	1280.527811691919	1
1	760	1283.039365683224	1
1	763	1285.796345633895	1
1	766	1290.618613461364	1
1	769	1295.280627863397	1
1	770	1298.50115140501	1
1	771	1298.59805031175	1
1	774	1301.773688889904	1
1	775	1303.568324969253	1
1	778	1309.863542555572	1
1	783	1315.26014354885	1
1	784	1316.958467211762	1
1	785	1318.671465335252	1
1	788	1321.089643768199	1
1	791	1325.901519047054	1
1	794	1332.816415079738	1
1	797	1335.616220430108	1
1	802	1346.15345845486	1
1	803	1346.881328347099	1
1	804	1347.424063839573	1
1	805	1349.1951845008	1
1	806	1349.679798273684	1
1	809	1353.899240636638	1
1	812	1356.084380705508	1
1	815	1360.553026097036	1
1	816	1364.565786025829	1
1	819	1368.836184704044	1
1	820	1369.007201795834	1
1	823	1374.30224872274	1
1	832	1391.664926119152	1
1	835	1396.944174162451	1
1	836	1398.879824623196	1
1	839	1401.7028771288	1
1	840	1402.953284603689	1
1	845	1414.296454567151	1
1	848	1415.057922693423	1
1	849	1417.348787113214	1
1	850	1417.860390187477	1
1	853	1420.722697944619	1
1	862	1441.411746747171	1
1	867	1452.536320033298	1
1	868	1454.044149599415	1
1	873	1462.248637489049	1
1	876	1466.09902178678	1
1	879	1472.184119263467	1
1	882	1475.154486755086	1
1	883	1475.68254997323	1
1	884	1476.206959151232	1
1	889	1488.803369801648	1
1	892	1490.975098081367	1
1	895	1497.238135705925	1
1	898	1500.405448794538	1
1	911	1534.232401394223	1
1	916	1543.43106531961	1
1	917	1544.240415753171	1
1	924	1555.991302201925	1
1	929	1566.120846287441	1
1	930	1566.312260851865	1
1	931	1567.198888727591	1
1	934	1570.748478363711	1
1	937	1575.528310483323	1
1	938	1576.441003492736	1
1	939	1577.101922040809	1
1	942	1584.651039318856	1
1	947	1594.070683751786	1
1	952	1604.080616229416	1
1	957	1612.31421173605	1
1	958	1614.964226126733	1
1	961	1619.173630935393	1
1	962	1619.927585986362	1
1	965	1622.541936136804	1
1	966	1622.710870064564	1
1	967	1623.069246986128	1
1	976	1643.318481180151	1
1	979	1649.295674011562	1
1	982	1651.632036843612	1
1	983	1654.65353220285	1
1	986	1657.377817843573	1
1	989	1663.779488862635	1
1	990	1664.03905162355	1
1	995	1674.102915304579	1
1	998	1676.377474528538	1
1	1005	1694.927277488057	1
1	1008	1695.011116318018	1
1	1011	1704.694002505474	1
1	1014	1706.005649051305	1
1	1015	1706.064565210897	1
1	1018	1713.303535620839	1
1	1021	1715.534799723434	1
1	1026	1729.957858483946	1
1	1031	1736.50435030406	1
1	1034	1743.435807064166	1
1	1035	1744.377281940262	1
1	1038	1746.450344653557	1
1	1041	1750.13100015349	1
1	1042	1753.493302737658	1
1	1043	1753.772653002101	1
1	1046	1755.842547615464	1
1	1047	1756.958243655968	1
1	1048	1757.947391193263	1
1	1049	1758.040868545368	1
1	1050	1758.978463301382	1
1	1055	1766.870526911912	1
1	1056	1769.983513631804	1
1	1059	1771.251042157521	1
1	1064	1781.631197459735	1
1	1065	1783.749482966519	1
1	1072	1798.172204408553	1
1	1079	1811.333298721297	1
1	1082	1816.018992309914	1
1	1085	1822.112976326631	1
1	1088	1826.652796463254	1
1	1089	1826.81458048648	1
1	1092	1834.468736617817	1
1	1095	1835.368523325576	1
1	1096	1838.834522173264	1
1	1099	1843.691932963739	1
1	1100	1843.950347492716	1
1	1103	1848.254965676119	1
1	1106	1854.259820208829	1
1	1109	1855.618160560541	1
1	1120	1880.013825000509	1
1	1125	1893.620566280074	1
1	1128	1895.175405304923	1
1	1129	1899.934553842634	1
1	1134	1905.61753631892	1
1	1135	1909.452934591782	1
1	1140	1919.438794429232	1
1	1143	1923.895687313782	1
1	1148	1930.84407263266	1
1	1151	1937.392999489468	1
1	1158	1954.082671158737	1
1	1161	1955.952103638253	1
1	1162	1959.99200390525	1
1	1165	1962.531329518683	1
1	1166	1963.725093882922	1
1	1167	1964.902716750015	1
1	1170	1966.160709815579	1
1	1171	1967.190870057994	1
1	1172	1968.425166401988	1
1	1179	1982.870544361482	1
1	1182	1987.085438238554	1
1	1185	1993.812175404724	1
1	1188	1996.820570337346	1
1	1191	2000.191793185527	1
1	1198	2017.76418658821	1
1	1199	2019.05425040791	1
1	1202	2024.759939922207	1
1	1205	2026.227478181823	1
1	1206	2026.673249631799	1
1	1207	2026.972154446376	1
1	1208	2027.262516256956	1
1	1211	2030.112004083488	1
1	1212	2033.457572701938	1
1	1215	2035.32592167391	1
1	1220	2045.969272146567	1
1	1223	2051.928562664841	1
1	1232	2070.662035733967	1
1	1233	2073.034117185632	1
1	1236	2077.841315043488	1
1	1237	2078.831153720158	1
1	1240	2082.741032324536	1
1	1241	2082.8659740911	1
1	1246	2092.507774775499	1
1	1247	2092.855863130867	1
1	1250	2099.665521752395	1
1	1255	2105.353214280098	1
1	1256	2108.609367939686	1
1	1259	2111.632274031362	1
1	1262	2117.284051760915	1
1	1265	2121.129650766397	1
1	1268	2125.799952429423	1
1	1273	2137.149152508344	1
1	1276	2143.420168858799	1
1	1287	2166.618431490668	1
1	1288	2169.788081587639	1
1	1291	2171.010536697854	1
1	1292	2174.05470126654	1
1	1295	2179.494223434612	1
1	1302	2191.338814288797	1
1	1303	2192.866838797869	1
1	1304	2193.604818962325	1
1	1305	2193.709155055376	1
1	1308	2195.010912113112	1
1	1311	2202.112829391038	1
1	1316	2212.780645828413	1
1	1317	2214.709084298639	1
1	1324	2226.448303105786	1
1	1325	2228.866495043234	1
1	1328	2234.05574542068	1
1	1331	2238.493255063099	1
1	1334	2240.456120204037	1
1	1337	2249.346836888207	1
1	1340	2253.013675254047	1
1	1343	2257.971196718533	1
1	1344	2257.971473478009	1
1	1349	2268.275579682413	1
1	1352	2270.144396151496	1
1	1353	2271.74226942586	1
1	1354	2274.5131235711	1
1	1359	2282.5117207803	1
1	1364	2293.340539184673	1
1	1365	2294.367278028351	1
1	1370	2300.062566281715	1
1	1377	2315.328489629682	1
1	1378	2318.373712693226	1
1	1381	2324.189279110353	1
1	1384	2327.491794509099	1
1	1385	2328.705386977458	1
1	1390	2336.478701666502	1
1	1397	2351.201103053618	1
1	1398	2352.5043037005	1
1	1401	2359.066843665328	1
1	1406	2369.680576935038	1
1	1409	2371.145334227471	1
1	1410	2373.027480985078	1
1	1411	2374.227098582259	1
1	1420	2390.012576289337	1
1	1421	2393.663714615532	1
1	1424	2396.854657643496	1
1	1425	2396.984646369462	1
1	1428	2403.201400259205	1
1	1429	2404.364025351129	1
1	1432	2405.198398557293	1
1	1433	2407.962590410552	1
1	1436	2414.517452251354	1
1	1439	2416.860834631239	1
1	1442	2422.056862814146	1
1	1445	2425.17100936297	1
1	1446	2426.380607586826	1
1	1447	2428.006687676707	1
1	1448	2429.038477644732	1
1	1451	2433.457405924897	1
1	1456	2441.697786790702	1
1	1461	2451.667982797087	1
1	1464	2458.541382566096	1
1	1465	2459.166545515713	1
1	1468	2464.783848013453	1
1	1471	2468.426467227125	1
1	1474	2470.047462794557	1
1	1475	2470.755672968533	1
1	1476	2471.716980172744	1
1	1479	2478.02604354018	1
1	1482	2484.121040266087	1
1	1485	2486.642439932344	1
1	1486	2489.75262452775	1
1	1489	2493.91951573098	1
1	1494	2503.095832745678	1
1	1495	2504.108126564168	1
1	1498	2505.254348190203	1
1	1499	2506.036727042125	1
1	1500	2506.938098540016	1
1	1503	2510.285801494321	1
1	1504	2510.952504610684	1
1	1505	2513.149781563148	1
1	1508	2519.551903333042	1
1	1515	2533.655083075117	1
1	1516	2533.80971453292	1
1	1521	2541.057488415058	1
1	1524	2547.92920348716	1
1	1527	2554.834018965494	1
1	1530	2555.319857357329	1
1	1535	2567.022317160616	1
1	1536	2568.248307623828	1
1	1537	2568.68385054012	1
1	1542	2575.600432870876	1
1	1543	2579.617391684212	1
1	1548	2586.195522975696	1
1	1551	2590.586598369287	1
1	1552	2590.820037087509	1
1	1559	2607.162519091624	1
1	1560	2608.335798337906	1
1	1563	2610.06339625645	1
1	1564	2611.754169830672	1
1	1565	2613.131809515864	1
1	1568	2618.786401911807	1
1	1569	2619.31483778233	1
1	1570	2619.640402106263	1
1	1571	2619.723232578371	1
1	1574	2623.778937689511	1
1	1581	2637.041730267113	1
1	1582	2637.088145389003	1
1	1585	2642.630194160073	1
1	1590	2651.580142182479	1
1	1593	2659.269285754862	1
1	1604	2680.049141232678	1
1	1605	2681.703690638559	1
1	1608	2687.782143005352	1
1	1611	2692.196545730138	1
1	1612	2693.198756705567	1
1	1613	2693.529216759034	1
1	1616	2697.120449159574	1
1	1619	2700.444487907332	1
1	1620	2704.787316564661	1
1	1629	2723.7574354801	1
1	1634	2731.502493875875	1
1	1639	2741.960276738991	1
1	1642	2746.623336015335	1
1	1643	2748.686985348969	1
1	1644	2749.919064460033	1
1	1653	2766.213669345956	1
1	1654	2769.250065789053	1
1	1657	2770.567951353229	1
1	1662	2781.122395225143	1
1	1669	2796.033398602506	1
1	1670	2799.422408612781	1
1	1677	2813.605609579658	1
1	1680	2819.891794557511	1
1	1685	2827.91908837285	1
1	1688	2831.248300806035	1
1	1691	2836.225619022868	1
1	1694	2842.390021338022	1
1	1699	2852.758828653522	1
1	1702	2856.206001342762	1
1	1703	2857.939767861706	1
1	1708	2867.246926076616	1
1	1713	2876.697434567097	1
1	1714	2877.777915650068	1
1	1717	2882.587975283018	1
1	1722	2890.009187696268	1
1	1723	2890.07581392041	1
1	1730	2908.374100574235	1
1	1733	2910.506779634417	1
1	1738	2920.420524157434	1
1	1739	2921.222194629867	1
1	1742	2928.802539278992	1
1	1751	2948.842287553364	1
1	1760	2969.851584684603	1
1	1763	2973.105571396399	1
1	1768	2980.108949881201	1
1	1769	2983.548667273506	1
1	1770	2983.568948880111	1
1	1773	2988.669884319885	1
1	1776	2990.239873810202	1
1	1777	2992.538830399081	1
1	1780	2995.18116654059	1
1	1781	2995.917291727155	1
1	1782	2998.71233007711	1
1	1787	3007.345496975821	1
1	1788	3009.113479852136	1
1	1791	3010.166146293157	1
1	1792	3012.729719506305	1
1	1795	3016.309946096273	1
1	1796	3016.952847282654	1
1	1797	3018.222904174405	1
1	1806	3037.9610705122	1
1	1807	3038.475912330796	1
1	1810	3041.08130643622	1
1	1815	3050.990758141764	1
1	1818	3055.201439655951	1
1	1825	3073.24614468087	1
1	1828	3075.351111171115	1
1	1835	3091.550926005619	1
1	1838	3099.327397807392	1
1	1845	3111.179335710462	1
1	1846	3113.829143606822	1
1	1851	3121.26629237852	1
1	1852	3123.492039075552	1
1	1855	3125.517953487264	1
1	1856	3128.067907656511	1
1	1857	3128.49080511532	1
1	1860	3130.287274640951	1
1	1861	3132.90211290923	1
1	1866	3140.365273730192	1
1	1867	3141.686626050871	1
1	1872	3154.719485062476	1
1	1875	3155.430112619439	1
1	1876	3157.397624675052	1
1	1877	3157.672161537807	1
1	1884	3172.946460432843	1
1	1887	3179.412199726822	1
1	1888	3179.482432683034	1
1	1889	3179.539898934077	1
1	1892	3183.352017355151	1
1	1897	3190.713038145119	1
1	1898	3192.529249239628	1
1	1899	3193.323915137909	1
1	1904	3204.045842460476	1
1	1905	3204.460153825069	1
1	1908	3205.90271737681	1
1	1909	3206.372090113223	1
1	1912	3212.028983951245	1
1	1915	3217.60342106078	1
1	1920	3225.918249964151	1
1	1921	3227.325870076506	1
1	1924	3230.15534278468	1
1	1925	3232.883631358517	1
1	1928	3239.857976814833	1
1	1931	3243.933068469314	1
1	1936	3252.781167585364	1
1	1941	3262.631455413326	1
1	1944	3265.013848326315	1
1	1947	3271.506076504338	1
1	1948	3272.013746924045	1
1	1949	3273.589547067624	1
1	1952	3275.069056433864	1
1	1953	3275.773895855939	1
1	1956	3280.255541881042	1
1	1957	3280.540374543376	1
1	1958	3283.776248063591	1
1	1961	3285.571054655474	1
1	1962	3288.917569015404	1
1	1965	3290.437426811548	1
1	1966	3293.504622259509	1
1	1969	3296.549944536127	1
1	1972	3300.267860495008	1
1	1975	3306.016567433757	1
1	1976	3308.933686288934	1
1	1979	3314.881167545609	1
1	1984	3324.455378833822	1
1	1987	3326.122395525699	1
1	1988	3328.963247944411	1
1	1991	3331.352837881967	1
1	1996	3340.121411107085	1
1	1997	3341.120688796688	1
1	1998	3344.680729124812	1
1	2003	3352.449456634973	1
1	2004	3352.901142855381	1
1	2005	3353.193782350114	1
1	2008	3358.588416892612	1
1	2011	3364.558483745588	1
1	2014	3365.715588605364	1
1	2017	3373.256664763499	1
1	2022	3382.652256934549	1
1	2027	3390.164320903103	1
1	2030	3395.882774006036	1
1	2031	3397.384399407464	1
1	2032	3398.366708836948	1
1	2035	3400.707241103122	1
1	2036	3401.069336653695	1
1	2039	3405.498139883844	1
1	2040	3405.546816930547	1
1	2041	3407.139736169942	1
1	2046	3418.270156117151	1
1	2049	3420.587106254851	1
1	2050	3421.30337136176	1
1	2051	3422.400712166229	1
1	2054	3429.953020172349	1
1	2057	3433.03261659127	1
1	2064	3445.994859635187	1
1	2065	3446.223049882665	1
1	2068	3452.502517304367	1
1	2073	3460.544606549796	1
1	2074	3463.919361418062	1
1	2075	3464.319755697782	1
1	2078	3467.48941633024	1
1	2081	3471.147143025903	1
1	2086	3481.862641528052	1
1	2087	3483.694897987215	1
1	2090	3487.046057370095	1
1	2093	3491.354394829071	1
1	2094	3494.031416584538	1
1	2103	3510.055460732597	1
1	2104	3511.011940962089	1
1	2107	3516.198166432603	1
1	2108	3519.422708888433	1
1	2109	3519.60272303718	1
1	2114	3527.256965131897	1
1	2117	3530.071091140983	1
1	2118	3534.135582946911	1
1	2121	3537.702504360915	1
1	2122	3538.573480162786	1
1	2125	3542.414746872123	1
1	2126	3543.191174799648	1
1	2129	3548.910151695242	1
1	2132	3554.151597220023	1
1	2135	3555.777451572466	1
1	2136	3559.651663469986	1
1	2139	3560.341429629633	1
1	2140	3562.311717489368	1
1	2141	3564.805179153718	1
1	2144	3565.600239237715	1
1	2151	3581.264386685448	1
1	2152	3582.135380268363	1
1	2153	3583.171306179619	1
1	2154	3583.864240286734	1
1	2161	3595.580439937197	1
1	2162	3599.905130484343	1
2	2	5	0
2	5	10	0
2	8	15	0
2	10	20	0
2	13	25	0
2	16	30	0
2	18	35	0
2	21	40	0
2	24	45	0
2	26	50	0
2	30	55	0
2	33	60	0
2	36	65	0
2	40	70	0
2	43	75	0
2	45	80	0
2	49	85	0
2	51	90	0
2	53	95	0
2	56	100	0
2	60	105	0
2	63	110	0
2	66	115	0
2	68	120	0
2	71	125	0
2	74	130	0
2	78	135	0
2	81	140	0
2	83	145	0
2	86	150	0
2	88	155	0
2	92	160	0
2	96	165	0
2	101	170	0
2	103	175	0
2	106	180	0
2	108	185	0
2	110	190	0
2	113	195	0
2	115	200	0
2	119	205	0
2	121	210	0
2	124	215	0
2	126	220	0
2	129	225	0
2	131	230	0
2	133	235	0
2	135	240	0
2	138	245	0
2	141	250	0
2	144	255	0
2	146	260	0
2	150	265	0
2	153	270	0
2	155	275	0
2	158	280	0
2	162	285	0
2	165	290	0
2	168	295	0
2	172	300	0
2	175	305	0
2	177	310	0
2	179	315	0
2	182	320	0
2	185	325	0
2	189	330	0
2	193	335	0
2	197	340	0
2	200	345	0
2	202	350	0
2	206	355	0
2	211	360	0
2	215	365	0
2	219	370	0
2	223	375	0
2	226	380	0
2	229	385	0
2	231	390	0
2	233	395	0
2	236	400	0
2	238	405	0
2	241	410	0
2	244	415	0
2	248	420	0
2	251	425	0
2	254	430	0
2	256	435	0
2	259	440	0
2	264	445	0
2	266	450	0
2	268	455	0
2	270	460	0
2	273	465	0
2	276	470	0
2	279	475	0
2	284	480	0
2	288	485	0
2	291	490	0
2	294	495	0
2	298	500	0
2	303	505	0
2	306	510	0
2	309	515	0
2	311	520	0
2	313	525	0
2	315	530	0
2	317	535	0
2	320	540	0
2	322	545	0
2	324	550	0
2	328	555	0
2	332	560	0
2	336	565	0
2	338	570	0
2	340	575	0
2	342	580	0
2	344	585	0
2	346	590	0
2	349	595	0
2	352	600	0
2	357	605	0
2	360	610	0
2	364	615	0
2	368	620	0
2	372	625	0
2	375	630	0
2	380	635	0
2	382	640	0
2	386	645	0
2	388	650	0
2	390	655	0
2	393	660	0
2	396	665	0
2	399	670	0
2	404	675	0
2	407	680	0
2	409	685	0
2	412	690	0
2	416	695	0
2	418	700	0
2	420	705	0
2	422	710	0
2	425	715	0
2	427	720	0
2	429	725	0
2	431	730	0
2	434	735	0
2	436	740	0
2	439	745	0
2	443	750	0
2	445	755	0
2	447	760	0
2	449	765	0
2	453	770	0
2	456	775	0
2	459	780	0
2	464	785	0
2	468	790	0
2	470	795	0
2	472	800	0
2	474	805	0
2	479	810	0
2	483	815	0
2	486	820	0
2	490	825	0
2	492	830	0
2	495	835	0
2	498	840	0
2	500	845	0
2	504	850	0
2	507	855	0
2	510	860	0
2	514	865	0
2	516	870	0
2	519	875	0
2	523	880	0
2	526	885	0
2	528	890	0
2	530	895	0
2	534	900	0
2	536	905	0
2	539	910	0
2	543	915	0
2	545	920	0
2	547	925	0
2	551	930	0
2	555	935	0
2	558	940	0
2	560	945	0
2	564	950	0
2	567	955	0
2	570	960	0
2	572	965	0
2	577	970	0
2	581	975	0
2	584	980	0
2	589	985	0
2	591	990	0
2	597	995	0
2	599	1000	0
2	603	1005	0
2	606	1010	0
2	609	1015	0
2	612	1020	0
2	615	1025	0
2	617	1030	0
2	619	1035	0
2	623	1040	0
2	626	1045	0
2	629	1050	0
2	632	1055	0
2	636	1060	0
2	638	1065	0
2	640	1070	0
2	643	1075	0
2	646	1080	0
2	650	1085	0
2	652	1090	0
2	655	1095	0
2	657	1100	0
2	659	1105	0
2	662	1110	0
2	665	1115	0
2	669	1120	0
2	671	1125	0
2	674	1130	0
2	676	1135	0
2	678	1140	0
2	680	1145	0
2	683	1150	0
2	687	1155	0
2	690	1160	0
2	693	1165	0
2	695	1170	0
2	699	1175	0
2	702	1180	0
2	705	1185	0
2	707	1190	0
2	710	1195	0
2	714	1200	0
2	717	1205	0
2	719	1210	0
2	722	1215	0
2	724	1220	0
2	726	1225	0
2	729	1230	0
2	732	1235	0
2	735	1240	0
2	737	1245	0
2	740	1250	0
2	744	1255	0
2	747	1260	0
2	749	1265	0
2	751	1270	0
2	754	1275	0
2	757	1280	0
2	761	1285	0
2	764	1290	0
2	767	1295	0
2	772	1300	0
2	776	1305	0
2	779	1310	0
2	781	1315	0
2	786	1320	0
2	789	1325	0
2	792	1330	0
2	795	1335	0
2	798	1340	0
2	800	1345	0
2	807	1350	0
2	810	1355	0
2	813	1360	0
2	817	1365	0
2	821	1370	0
2	824	1375	0
2	826	1380	0
2	828	1385	0
2	830	1390	0
2	833	1395	0
2	837	1400	0
2	841	1405	0
2	843	1410	0
2	846	1415	0
2	851	1420	0
2	854	1425	0
2	856	1430	0
2	858	1435	0
2	860	1440	0
2	863	1445	0
2	865	1450	0
2	869	1455	0
2	871	1460	0
2	874	1465	0
2	877	1470	0
2	880	1475	0
2	885	1480	0
2	887	1485	0
2	890	1490	0
2	893	1495	0
2	896	1500	0
2	899	1505	0
2	901	1510	0
2	903	1515	0
2	905	1520	0
2	907	1525	0
2	909	1530	0
2	912	1535	0
2	914	1540	0
2	918	1545	0
2	920	1550	0
2	922	1555	0
2	925	1560	0
2	927	1565	0
2	932	1570	0
2	935	1575	0
2	940	1580	0
2	943	1585	0
2	945	1590	0
2	948	1595	0
2	950	1600	0
2	953	1605	0
2	955	1610	0
2	959	1615	0
2	963	1620	0
2	968	1625	0
2	970	1630	0
2	972	1635	0
2	974	1640	0
2	977	1645	0
2	980	1650	0
2	984	1655	0
2	987	1660	0
2	991	1665	0
2	993	1670	0
2	996	1675	0
2	999	1680	0
2	1001	1685	0
2	1003	1690	0
2	1006	1695	0
2	1009	1700	0
2	1012	1705	0
2	1016	1710	0
2	1019	1715	0
2	1022	1720	0
2	1024	1725	0
2	1027	1730	0
2	1029	1735	0
2	1032	1740	0
2	1036	1745	0
2	1039	1750	0
2	1044	1755	0
2	1051	1760	0
2	1053	1765	0
2	1057	1770	0
2	1060	1775	0
2	1062	1780	0
2	1066	1785	0
2	1068	1790	0
2	1070	1795	0
2	1073	1800	0
2	1075	1805	0
2	1077	1810	0
2	1080	1815	0
2	1083	1820	0
2	1086	1825	0
2	1090	1830	0
2	1093	1835	0
2	1097	1840	0
2	1101	1845	0
2	1104	1850	0
2	1107	1855	0
2	1110	1860	0
2	1112	1865	0
2	1114	1870	0
2	1116	1875	0
2	1118	1880	0
2	1121	1885	0
2	1123	1890	0
2	1126	1895	0
2	1130	1900	0
2	1132	1905	0
2	1136	1910	0
2	1138	1915	0
2	1141	1920	0
2	1144	1925	0
2	1146	1930	0
2	1149	1935	0
2	1152	1940	0
2	1154	1945	0
2	1156	1950	0
2	1159	1955	0
2	1163	1960	0
2	1168	1965	0
2	1173	1970	0
2	1175	1975	0
2	1177	1980	0
2	1180	1985	0
2	1183	1990	0
2	1186	1995	0
2	1189	2000	0
2	1192	2005	0
2	1194	2010	0
2	1196	2015	0
2	1200	2020	0
2	1203	2025	0
2	1209	2030	0
2	1213	2035	0
2	1216	2040	0
2	1218	2045	0
2	1221	2050	0
2	1224	2055	0
2	1226	2060	0
2	1228	2065	0
2	1230	2070	0
2	1234	2075	0
2	1238	2080	0
2	1242	2085	0
2	1244	2090	0
2	1248	2095	0
2	1251	2100	0
2	1253	2105	0
2	1257	2110	0
2	1260	2115	0
2	1263	2120	0
2	1266	2125	0
2	1269	2130	0
2	1271	2135	0
2	1274	2140	0
2	1277	2145	0
2	1279	2150	0
2	1281	2155	0
2	1283	2160	0
2	1285	2165	0
2	1289	2170	0
2	1293	2175	0
2	1296	2180	0
2	1298	2185	0
2	1300	2190	0
2	1306	2195	0
2	1309	2200	0
2	1312	2205	0
2	1314	2210	0
2	1318	2215	0
2	1320	2220	0
2	1322	2225	0
2	1326	2230	0
2	1329	2235	0
2	1332	2240	0
2	1335	2245	0
2	1338	2250	0
2	1341	2255	0
2	1345	2260	0
2	1347	2265	0
2	1350	2270	0
2	1355	2275	0
2	1357	2280	0
2	1360	2285	0
2	1362	2290	0
2	1366	2295	0
2	1368	2300	0
2	1371	2305	0
2	1373	2310	0
2	1375	2315	0
2	1379	2320	0
2	1382	2325	0
2	1386	2330	0
2	1388	2335	0
2	1391	2340	0
2	1393	2345	0
2	1395	2350	0
2	1399	2355	0
2	1402	2360	0
2	1404	2365	0
2	1407	2370	0
2	1412	2375	0
2	1414	2380	0
2	1416	2385	0
2	1418	2390	0
2	1422	2395	0
2	1426	2400	0
2	1430	2405	0
2	1434	2410	0
2	1437	2415	0
2	1440	2420	0
2	1443	2425	0
2	1449	2430	0
2	1452	2435	0
2	1454	2440	0
2	1457	2445	0
2	1459	2450	0
2	1462	2455	0
2	1466	2460	0
2	1469	2465	0
2	1472	2470	0
2	1477	2475	0
2	1480	2480	0
2	1483	2485	0
2	1487	2490	0
2	1490	2495	0
2	1492	2500	0
2	1496	2505	0
2	1501	2510	0
2	1506	2515	0
2	1509	2520	0
2	1511	2525	0
2	1513	2530	0
2	1517	2535	0
2	1519	2540	0
2	1522	2545	0
2	1525	2550	0
2	1528	2555	0
2	1531	2560	0
2	1533	2565	0
2	1538	2570	0
2	1540	2575	0
2	1544	2580	0
2	1546	2585	0
2	1549	2590	0
2	1553	2595	0
2	1555	2600	0
2	1557	2605	0
2	1561	2610	0
2	1566	2615	0
2	1572	2620	0
2	1575	2625	0
2	1577	2630	0
2	1579	2635	0
2	1583	2640	0
2	1586	2645	0
2	1588	2650	0
2	1591	2655	0
2	1594	2660	0
2	1596	2665	0
2	1598	2670	0
2	1600	2675	0
2	1602	2680	0
2	1606	2685	0
2	1609	2690	0
2	1614	2695	0
2	1617	2700	0
2	1621	2705	0
2	1623	2710	0
2	1625	2715	0
2	1627	2720	0
2	1630	2725	0
2	1632	2730	0
2	1635	2735	0
2	1637	2740	0
2	1640	2745	0
2	1645	2750	0
2	1647	2755	0
2	1649	2760	0
2	1651	2765	0
2	1655	2770	0
2	1658	2775	0
2	1660	2780	0
2	1663	2785	0
2	1665	2790	0
2	1667	2795	0
2	1671	2800	0
2	1673	2805	0
2	1675	2810	0
2	1678	2815	0
2	1681	2820	0
2	1683	2825	0
2	1686	2830	0
2	1689	2835	0
2	1692	2840	0
2	1695	2845	0
2	1697	2850	0
2	1700	2855	0
2	1704	2860	0
2	1706	2865	0
2	1709	2870	0
2	1711	2875	0
2	1715	2880	0
2	1718	2885	0
2	1720	2890	0
2	1724	2895	0
2	1726	2900	0
2	1728	2905	0
2	1731	2910	0
2	1734	2915	0
2	1736	2920	0
2	1740	2925	0
2	1743	2930	0
2	1745	2935	0
2	1747	2940	0
2	1749	2945	0
2	1752	2950	0
2	1754	2955	0
2	1756	2960	0
2	1758	2965	0
2	1761	2970	0
2	1764	2975	0
2	1766	2980	0
2	1771	2985	0
2	1774	2990	0
2	1778	2995	0
2	1783	3000	0
2	1785	3005	0
2	1789	3010	0
2	1793	3015	0
2	1798	3020	0
2	1800	3025	0
2	1802	3030	0
2	1804	3035	0
2	1808	3040	0
2	1811	3045	0
2	1813	3050	0
2	1816	3055	0
2	1819	3060	0
2	1821	3065	0
2	1823	3070	0
2	1826	3075	0
2	1829	3080	0
2	1831	3085	0
2	1833	3090	0
2	1836	3095	0
2	1839	3100	0
2	1841	3105	0
2	1843	3110	0
2	1847	3115	0
2	1849	3120	0
2	1853	3125	0
2	1858	3130	0
2	1862	3135	0
2	1864	3140	0
2	1868	3145	0
2	1870	3150	0
2	1873	3155	0
2	1878	3160	0
2	1880	3165	0
2	1882	3170	0
2	1885	3175	0
2	1890	3180	0
2	1893	3185	0
2	1895	3190	0
2	1900	3195	0
2	1902	3200	0
2	1906	3205	0
2	1910	3210	0
2	1913	3215	0
2	1916	3220	0
2	1918	3225	0
2	1922	3230	0
2	1926	3235	0
2	1929	3240	0
2	1932	3245	0
2	1934	3250	0
2	1937	3255	0
2	1939	3260	0
2	1942	3265	0
2	1945	3270	0
2	1950	3275	0
2	1954	3280	0
2	1959	3285	0
2	1963	3290	0
2	1967	3295	0
2	1970	3300	0
2	1973	3305	0
2	1977	3310	0
2	1980	3315	0
2	1982	3320	0
2	1985	3325	0
2	1989	3330	0
2	1992	3335	0
2	1994	3340	0
2	1999	3345	0
2	2001	3350	0
2	2006	3355	0
2	2009	3360	0
2	2012	3365	0
2	2015	3370	0
2	2018	3375	0
2	2020	3380	0
2	2023	3385	0
2	2025	3390	0
2	2028	3395	0
2	2033	3400	0
2	2037	3405	0
2	2042	3410	0
2	2044	3415	0
2	2047	3420	0
2	2052	3425	0
2	2055	3430	0
2	2058	3435	0
2	2060	3440	0
2	2062	3445	0
2	2066	3450	0
2	2069	3455	0
2	2071	3460	0
2	2076	3465	0
2	2079	3470	0
2	2082	3475	0
2	2084	3480	0
2	2088	3485	0
2	2091	3490	0
2	2095	3495	0
2	2097	3500	0
2	2099	3505	0
2	2101	3510	0
2	2105	3515	0
2	2110	3520	0
2	2112	3525	0
2	2115	3530	0
2	2119	3535	0
2	2123	3540	0
2	2127	3545	0
2	2130	3550	0
2	2133	3555	0
2	2137	3560	0
2	2142	3565	0
2	2145	3570	0
2	2147	3575	0
2	2149	3580	0
2	2155	3585	0
2	2157	3590	0
2	2159	3595	0
2	2163	3600	0

