version 2
run DegeneracyTest3-0-20210118-18:13:45-9601
attr configname DegeneracyTest3
attr datetime 20210118-18:13:45
attr experiment DegeneracyTest3
attr inifile omnetpp.ini
attr iterationvars ""
attr iterationvarsf ""
attr measurement ""
attr network slottedNetwork
attr processid 9601
attr repetition 0
attr replication #0
attr resultdir results
attr runnumber 0
attr seedset 0
param **.sendProbability 0
param **.numTransmitters 1
param **.numChannels 1
param **.sendProbability 1
param **.expMean 5s
param **.timeSlotSize 5s
param **.thresh 20s
param **.deterministicInterarrivalTime false

vector 0 slottedNetwork.transmitters[0] numPacketCreated:vector ETV
attr source numPacketCreatedSignal
vector 1 slottedNetwork.ch throughput:vector ETV
attr source throughputSignal
0	1	3.979372522829	1
0	4	8.472174465249	1
0	7	14.751828255486	1
0	12	24.049849315859	1
0	15	28.665964973213	1
0	20	38.423691652635	1
0	23	42.359697352545	1
0	28	51.754517623559	1
0	29	54.509760056911	1
0	32	59.394792188878	1
0	35	64.585588692197	1
0	38	67.011229510805	1
0	39	69.88882549522	1
0	42	71.654621190908	1
0	47	82.77224330109	1
0	48	83.064166646555	1
0	55	99.638728046196	1
0	58	101.230508750405	1
0	59	103.648519275147	1
0	62	106.895751016401	1
0	65	114.740231604516	1
0	70	123.101287606141	1
0	73	126.864658172705	1
0	76	130.134071008811	1
0	77	134.331235273312	1
0	80	136.825595318391	1
0	85	149.816865747636	1
0	90	158.858712069011	1
0	91	159.227138846336	1
0	94	161.285028827549	1
0	95	161.74083395817	1
0	98	166.96389649971	1
0	99	167.066024441705	1
0	100	169.362265127981	1
0	105	178.299703445174	1
0	112	194.050553088554	1
0	117	201.579474381741	1
0	118	202.335628650066	1
0	123	212.537199939775	1
0	128	222.741661019334	1
0	137	241.967770365043	1
0	140	245.176316228434	1
0	143	253.202514013742	1
0	148	261.272524388205	1
0	149	264.367171686339	1
0	152	268.041993792288	1
0	157	275.624673662239	1
0	160	281.30436837079	1
0	161	281.93374041798	1
0	164	288.309878929098	1
0	167	293.417038300844	1
0	170	297.778644276055	1
0	171	298.552292678555	1
0	174	302.406465970892	1
0	181	316.878568360827	1
0	184	323.985391761296	1
0	187	327.674528220076	1
0	188	328.234259023239	1
0	191	330.912087624378	1
0	192	334.120561134534	1
0	195	335.656962895297	1
0	196	336.687979305449	1
0	199	344.129253434207	1
0	204	350.805704357327	1
0	205	353.851116473242	1
0	208	355.071358926925	1
0	209	359.273032454986	1
0	210	359.999422591447	1
0	213	360.094265437452	1
0	214	362.053119490836	1
0	217	366.860024186165	1
0	218	367.670706633395	1
0	221	372.40569001927	1
0	222	373.662899679644	1
0	225	378.460639566485	1
0	228	380.903424813025	1
0	235	395.292999919413	1
0	240	406.937566790484	1
0	243	412.663261563984	1
0	246	415.651991948076	1
0	247	417.879584423332	1
0	250	422.627057340816	1
0	253	425.499719374522	1
0	258	437.131474682994	1
0	261	443.112013680279	1
0	262	443.634819809155	1
0	263	443.945396261487	1
0	272	461.44646468376	1
0	275	466.941027021515	1
0	278	472.235197678953	1
0	281	477.788184907389	1
0	282	478.725315237478	1
0	283	479.906348767892	1
0	286	482.123368910995	1
0	287	482.813512353137	1
0	290	489.758725802092	1
0	293	491.653535623505	1
0	296	496.333843422362	1
0	297	498.594353723485	1
0	300	500.559916510005	1
0	301	504.782055477643	1
0	302	504.977971259708	1
0	305	507.864592813741	1
0	308	512.893947839574	1
0	319	535.166432070454	1
0	326	551.131165280722	1
0	327	551.669340821502	1
0	330	556.958472888263	1
0	331	558.129980482141	1
0	334	563.170076709242	1
0	335	564.04964443637	1
0	348	590.850146187586	1
0	351	596.143859763057	1
0	354	600.503439031186	1
0	355	601.963841697522	1
0	356	604.639165082938	1
0	359	607.778872987894	1
0	362	610.997777995907	1
0	363	612.399163038302	1
0	366	617.283483408655	1
0	367	618.149120689386	1
0	370	620.211626838998	1
0	371	620.79640388796	1
0	374	626.412245395627	1
0	377	631.752606381375	1
0	378	633.660385598246	1
0	379	634.403946944507	1
0	384	641.93712361087	1
0	385	643.031526593406	1
0	392	657.967476052666	1
0	395	660.267545841367	1
0	398	665.698892745758	1
0	401	674.300551034341	1
0	402	674.368873926495	1
0	403	674.87959833412	1
0	406	679.755108004902	1
0	411	688.854202601324	1
0	414	694.453274430094	1
0	415	694.958448306639	1
0	424	712.826390168361	1
0	433	731.571547466283	1
0	438	742.098153970244	1
0	441	745.259836952223	1
0	442	748.822754918889	1
0	451	767.632391341409	1
0	452	767.919025973528	1
0	455	772.561418458035	1
0	458	775.56115289124	1
0	461	782.282379252002	1
0	462	782.383329892733	1
0	463	782.583211388024	1
0	466	785.497603332359	1
0	467	787.159654537178	1
0	476	806.617505151405	1
0	477	807.257788977961	1
0	478	809.48488628756	1
0	481	811.240766734467	1
0	482	814.518998156285	1
0	485	815.150941338412	1
0	488	820.985308971155	1
0	489	822.898813715464	1
0	494	833.519999700472	1
0	497	836.194421579256	1
0	502	848.713980494682	1
0	503	849.045467502093	1
0	506	850.267444742502	1
0	509	856.163392377828	1
0	512	860.327609958159	1
0	513	864.50809761801	1
0	518	874.524300230546	1
0	521	876.066374431035	1
0	522	879.622614117121	1
0	525	883.326408869356	1
0	532	895.75432065424	1
0	533	896.247572196331	1
0	538	908.949094736125	1
0	541	913.238572941496	1
0	542	913.672425353194	1
0	549	926.918704996576	1
0	550	928.545407074221	1
0	553	930.463208144714	1
0	554	930.510211898034	1
0	557	936.014441448488	1
0	562	945.251079703497	1
0	563	945.957733271301	1
0	566	951.166636542198	1
0	569	957.466305592743	1
0	574	966.672717950178	1
0	575	968.380988785309	1
0	576	969.918577404121	1
0	579	970.930329596957	1
0	580	973.46633021324	1
0	583	977.881975423036	1
0	586	981.905962422043	1
0	587	982.007524716021	1
0	588	982.908785975945	1
0	593	991.73749133801	1
0	594	994.046145818232	1
0	595	994.069678520694	1
0	596	994.861386051847	1
0	601	1000.524556761709	1
0	602	1004.739971922451	1
0	605	1006.313580226724	1
0	608	1012.396123493907	1
0	611	1019.039912862658	1
0	614	1020.741646553834	1
0	621	1037.117362442408	1
0	622	1039.956883209809	1
0	625	1041.386988072349	1
0	628	1048.442110118821	1
0	631	1052.734074957966	1
0	634	1055.255793990905	1
0	635	1059.738748344834	1
0	642	1071.057416224138	1
0	645	1075.30352028196	1
0	648	1080.396813932054	1
0	649	1081.65891389651	1
0	654	1092.766448388881	1
0	661	1108.027856673303	1
0	664	1113.725896490968	1
0	667	1116.689016628229	1
0	668	1119.670913599877	1
0	673	1129.038212999163	1
0	682	1148.253245915381	1
0	685	1154.264438751614	1
0	686	1154.882071988425	1
0	689	1156.647172654796	1
0	692	1163.931265447617	1
0	697	1172.335876470347	1
0	698	1174.98948895343	1
0	701	1177.514582692203	1
0	704	1183.140992776422	1
0	709	1193.788489756762	1
0	712	1195.225542137112	1
0	713	1199.578221268744	1
0	716	1201.456915480778	1
0	721	1212.131067730694	1
0	728	1228.95291999595	1
0	731	1234.849834664173	1
0	734	1239.289141716357	1
0	739	1245.74868806036	1
0	742	1251.137862481042	1
0	743	1254.616859785544	1
0	746	1258.426198642024	1
0	753	1274.053540430315	1
0	756	1275.363826638692	1
0	759	1280.527811691919	1
0	760	1283.039365683224	1
0	763	1285.796345633895	1
0	766	1290.618613461364	1
0	769	1295.280627863397	1
0	770	1298.50115140501	1
0	771	1298.59805031175	1
0	774	1301.773688889904	1
0	775	1303.568324969253	1
0	778	1309.863542555572	1
0	783	1315.26014354885	1
0	784	1316.958467211762	1
0	785	1318.671465335252	1
0	788	1321.089643768199	1
0	791	1325.901519047054	1
0	794	1332.816415079738	1
0	797	1335.616220430108	1
0	802	1346.15345845486	1
0	803	1346.881328347099	1
0	804	1347.424063839573	1
0	805	1349.1951845008	1
0	806	1349.679798273684	1
0	809	1353.899240636638	1
0	812	1356.084380705508	1
0	815	1360.553026097036	1
0	816	1364.565786025829	1
0	819	1368.836184704044	1
0	820	1369.007201795834	1
0	823	1374.30224872274	1
0	832	1391.664926119152	1
0	835	1396.944174162451	1
0	836	1398.879824623196	1
0	839	1401.7028771288	1
0	840	1402.953284603689	1
0	845	1414.296454567151	1
0	848	1415.057922693423	1
0	849	1417.348787113214	1
0	850	1417.860390187477	1
0	853	1420.722697944619	1
0	862	1441.411746747171	1
0	867	1452.536320033298	1
0	868	1454.044149599415	1
0	873	1462.248637489049	1
0	876	1466.09902178678	1
0	879	1472.184119263467	1
0	882	1475.154486755086	1
0	883	1475.68254997323	1
0	884	1476.206959151232	1
0	889	1488.803369801648	1
0	892	1490.975098081367	1
0	895	1497.238135705925	1
0	898	1500.405448794538	1
0	911	1534.232401394223	1
0	916	1543.43106531961	1
0	917	1544.240415753171	1
0	924	1555.991302201925	1
0	929	1566.120846287441	1
0	930	1566.312260851865	1
0	931	1567.198888727591	1
0	934	1570.748478363711	1
0	937	1575.528310483323	1
0	938	1576.441003492736	1
0	939	1577.101922040809	1
0	942	1584.651039318856	1
0	947	1594.070683751786	1
0	952	1604.080616229416	1
0	957	1612.31421173605	1
0	958	1614.964226126733	1
0	961	1619.173630935393	1
0	962	1619.927585986362	1
0	965	1622.541936136804	1
0	966	1622.710870064564	1
0	967	1623.069246986128	1
0	976	1643.318481180151	1
0	979	1649.295674011562	1
0	982	1651.632036843612	1
0	983	1654.65353220285	1
0	986	1657.377817843573	1
0	989	1663.779488862635	1
0	990	1664.03905162355	1
0	995	1674.102915304579	1
0	998	1676.377474528538	1
0	1005	1694.927277488057	1
0	1008	1695.011116318018	1
0	1011	1704.694002505474	1
0	1014	1706.005649051305	1
0	1015	1706.064565210897	1
0	1018	1713.303535620839	1
0	1021	1715.534799723434	1
0	1026	1729.957858483946	1
0	1031	1736.50435030406	1
0	1034	1743.435807064166	1
0	1035	1744.377281940262	1
0	1038	1746.450344653557	1
0	1041	1750.13100015349	1
0	1042	1753.493302737658	1
0	1043	1753.772653002101	1
0	1046	1755.842547615464	1
0	1047	1756.958243655968	1
0	1048	1757.947391193263	1
0	1049	1758.040868545368	1
0	1050	1758.978463301382	1
0	1055	1766.870526911912	1
0	1056	1769.983513631804	1
0	1059	1771.251042157521	1
0	1064	1781.631197459735	1
0	1065	1783.749482966519	1
0	1072	1798.172204408553	1
0	1079	1811.333298721297	1
0	1082	1816.018992309914	1
0	1085	1822.112976326631	1
0	1088	1826.652796463254	1
0	1089	1826.81458048648	1
0	1092	1834.468736617817	1
0	1095	1835.368523325576	1
0	1096	1838.834522173264	1
0	1099	1843.691932963739	1
0	1100	1843.950347492716	1
0	1103	1848.254965676119	1
0	1106	1854.259820208829	1
0	1109	1855.618160560541	1
0	1120	1880.013825000509	1
0	1125	1893.620566280074	1
0	1128	1895.175405304923	1
0	1129	1899.934553842634	1
0	1134	1905.61753631892	1
0	1135	1909.452934591782	1
0	1140	1919.438794429232	1
0	1143	1923.895687313782	1
0	1148	1930.84407263266	1
0	1151	1937.392999489468	1
0	1158	1954.082671158737	1
0	1161	1955.952103638253	1
0	1162	1959.99200390525	1
0	1165	1962.531329518683	1
0	1166	1963.725093882922	1
0	1167	1964.902716750015	1
0	1170	1966.160709815579	1
0	1171	1967.190870057994	1
0	1172	1968.425166401988	1
0	1179	1982.870544361482	1
0	1182	1987.085438238554	1
0	1185	1993.812175404724	1
0	1188	1996.820570337346	1
0	1191	2000.191793185527	1
0	1198	2017.76418658821	1
0	1199	2019.05425040791	1
0	1202	2024.759939922207	1
0	1205	2026.227478181823	1
0	1206	2026.673249631799	1
0	1207	2026.972154446376	1
0	1208	2027.262516256956	1
0	1211	2030.112004083488	1
0	1212	2033.457572701938	1
0	1215	2035.32592167391	1
0	1220	2045.969272146567	1
0	1223	2051.928562664841	1
0	1232	2070.662035733967	1
0	1233	2073.034117185632	1
0	1236	2077.841315043488	1
0	1237	2078.831153720158	1
0	1240	2082.741032324536	1
0	1241	2082.8659740911	1
0	1246	2092.507774775499	1
0	1247	2092.855863130867	1
0	1250	2099.665521752395	1
0	1255	2105.353214280098	1
0	1256	2108.609367939686	1
0	1259	2111.632274031362	1
0	1262	2117.284051760915	1
0	1265	2121.129650766397	1
0	1268	2125.799952429423	1
0	1273	2137.149152508344	1
0	1276	2143.420168858799	1
0	1287	2166.618431490668	1
0	1288	2169.788081587639	1
0	1291	2171.010536697854	1
0	1292	2174.05470126654	1
0	1295	2179.494223434612	1
0	1302	2191.338814288797	1
0	1303	2192.866838797869	1
0	1304	2193.604818962325	1
0	1305	2193.709155055376	1
0	1308	2195.010912113112	1
0	1311	2202.112829391038	1
0	1316	2212.780645828413	1
0	1317	2214.709084298639	1
0	1324	2226.448303105786	1
0	1325	2228.866495043234	1
0	1328	2234.05574542068	1
0	1331	2238.493255063099	1
0	1334	2240.456120204037	1
0	1337	2249.346836888207	1
0	1340	2253.013675254047	1
0	1343	2257.971196718533	1
0	1344	2257.971473478009	1
0	1349	2268.275579682413	1
0	1352	2270.144396151496	1
0	1353	2271.74226942586	1
0	1354	2274.5131235711	1
0	1359	2282.5117207803	1
0	1364	2293.340539184673	1
0	1365	2294.367278028351	1
0	1370	2300.062566281715	1
0	1377	2315.328489629682	1
0	1378	2318.373712693226	1
0	1381	2324.189279110353	1
0	1384	2327.491794509099	1
0	1385	2328.705386977458	1
0	1390	2336.478701666502	1
0	1397	2351.201103053618	1
0	1398	2352.5043037005	1
0	1401	2359.066843665328	1
0	1406	2369.680576935038	1
0	1409	2371.145334227471	1
0	1410	2373.027480985078	1
0	1411	2374.227098582259	1
0	1420	2390.012576289337	1
0	1421	2393.663714615532	1
0	1424	2396.854657643496	1
0	1425	2396.984646369462	1
0	1428	2403.201400259205	1
0	1429	2404.364025351129	1
0	1432	2405.198398557293	1
0	1433	2407.962590410552	1
0	1436	2414.517452251354	1
0	1439	2416.860834631239	1
0	1442	2422.056862814146	1
0	1445	2425.17100936297	1
0	1446	2426.380607586826	1
0	1447	2428.006687676707	1
0	1448	2429.038477644732	1
0	1451	2433.457405924897	1
0	1456	2441.697786790702	1
0	1461	2451.667982797087	1
0	1464	2458.541382566096	1
0	1465	2459.166545515713	1
0	1468	2464.783848013453	1
0	1471	2468.426467227125	1
0	1474	2470.047462794557	1
0	1475	2470.755672968533	1
0	1476	2471.716980172744	1
0	1479	2478.02604354018	1
0	1482	2484.121040266087	1
0	1485	2486.642439932344	1
0	1486	2489.75262452775	1
0	1489	2493.91951573098	1
0	1494	2503.095832745678	1
0	1495	2504.108126564168	1
0	1498	2505.254348190203	1
0	1499	2506.036727042125	1
0	1500	2506.938098540016	1
0	1503	2510.285801494321	1
0	1504	2510.952504610684	1
0	1505	2513.149781563148	1
0	1508	2519.551903333042	1
0	1515	2533.655083075117	1
0	1516	2533.80971453292	1
0	1521	2541.057488415058	1
0	1524	2547.92920348716	1
0	1527	2554.834018965494	1
0	1530	2555.319857357329	1
0	1535	2567.022317160616	1
0	1536	2568.248307623828	1
0	1537	2568.68385054012	1
0	1542	2575.600432870876	1
0	1543	2579.617391684212	1
0	1548	2586.195522975696	1
0	1551	2590.586598369287	1
0	1552	2590.820037087509	1
0	1559	2607.162519091624	1
0	1560	2608.335798337906	1
0	1563	2610.06339625645	1
0	1564	2611.754169830672	1
0	1565	2613.131809515864	1
0	1568	2618.786401911807	1
0	1569	2619.31483778233	1
0	1570	2619.640402106263	1
0	1571	2619.723232578371	1
0	1574	2623.778937689511	1
0	1581	2637.041730267113	1
0	1582	2637.088145389003	1
0	1585	2642.630194160073	1
0	1590	2651.580142182479	1
0	1593	2659.269285754862	1
0	1604	2680.049141232678	1
0	1605	2681.703690638559	1
0	1608	2687.782143005352	1
0	1611	2692.196545730138	1
0	1612	2693.198756705567	1
0	1613	2693.529216759034	1
0	1616	2697.120449159574	1
0	1619	2700.444487907332	1
0	1620	2704.787316564661	1
0	1629	2723.7574354801	1
0	1634	2731.502493875875	1
0	1639	2741.960276738991	1
0	1642	2746.623336015335	1
0	1643	2748.686985348969	1
0	1644	2749.919064460033	1
0	1653	2766.213669345956	1
0	1654	2769.250065789053	1
0	1657	2770.567951353229	1
0	1662	2781.122395225143	1
0	1669	2796.033398602506	1
0	1670	2799.422408612781	1
0	1677	2813.605609579658	1
0	1680	2819.891794557511	1
0	1685	2827.91908837285	1
0	1688	2831.248300806035	1
0	1691	2836.225619022868	1
0	1694	2842.390021338022	1
0	1699	2852.758828653522	1
0	1702	2856.206001342762	1
0	1703	2857.939767861706	1
0	1708	2867.246926076616	1
0	1713	2876.697434567097	1
0	1714	2877.777915650068	1
0	1717	2882.587975283018	1
0	1722	2890.009187696268	1
0	1723	2890.07581392041	1
0	1730	2908.374100574235	1
0	1733	2910.506779634417	1
0	1738	2920.420524157434	1
0	1739	2921.222194629867	1
0	1742	2928.802539278992	1
0	1751	2948.842287553364	1
0	1760	2969.851584684603	1
0	1763	2973.105571396399	1
0	1768	2980.108949881201	1
0	1769	2983.548667273506	1
0	1770	2983.568948880111	1
0	1773	2988.669884319885	1
0	1776	2990.239873810202	1
0	1777	2992.538830399081	1
0	1780	2995.18116654059	1
0	1781	2995.917291727155	1
0	1782	2998.71233007711	1
0	1787	3007.345496975821	1
0	1788	3009.113479852136	1
0	1791	3010.166146293157	1
0	1792	3012.729719506305	1
0	1795	3016.309946096273	1
0	1796	3016.952847282654	1
0	1797	3018.222904174405	1
0	1806	3037.9610705122	1
0	1807	3038.475912330796	1
0	1810	3041.08130643622	1
0	1815	3050.990758141764	1
0	1818	3055.201439655951	1
0	1825	3073.24614468087	1
0	1828	3075.351111171115	1
0	1835	3091.550926005619	1
0	1838	3099.327397807392	1
0	1845	3111.179335710462	1
0	1846	3113.829143606822	1
0	1851	3121.26629237852	1
0	1852	3123.492039075552	1
0	1855	3125.517953487264	1
0	1856	3128.067907656511	1
0	1857	3128.49080511532	1
0	1860	3130.287274640951	1
0	1861	3132.90211290923	1
0	1866	3140.365273730192	1
0	1867	3141.686626050871	1
0	1872	3154.719485062476	1
0	1875	3155.430112619439	1
0	1876	3157.397624675052	1
0	1877	3157.672161537807	1
0	1884	3172.946460432843	1
0	1887	3179.412199726822	1
0	1888	3179.482432683034	1
0	1889	3179.539898934077	1
0	1892	3183.352017355151	1
0	1897	3190.713038145119	1
0	1898	3192.529249239628	1
0	1899	3193.323915137909	1
0	1904	3204.045842460476	1
0	1905	3204.460153825069	1
0	1908	3205.90271737681	1
0	1909	3206.372090113223	1
0	1912	3212.028983951245	1
0	1915	3217.60342106078	1
0	1920	3225.918249964151	1
0	1921	3227.325870076506	1
0	1924	3230.15534278468	1
0	1925	3232.883631358517	1
0	1928	3239.857976814833	1
0	1931	3243.933068469314	1
0	1936	3252.781167585364	1
0	1941	3262.631455413326	1
0	1944	3265.013848326315	1
0	1947	3271.506076504338	1
0	1948	3272.013746924045	1
0	1949	3273.589547067624	1
0	1952	3275.069056433864	1
0	1953	3275.773895855939	1
0	1956	3280.255541881042	1
0	1957	3280.540374543376	1
0	1958	3283.776248063591	1
0	1961	3285.571054655474	1
0	1962	3288.917569015404	1
0	1965	3290.437426811548	1
0	1966	3293.504622259509	1
0	1969	3296.549944536127	1
0	1972	3300.267860495008	1
0	1975	3306.016567433757	1
0	1976	3308.933686288934	1
0	1979	3314.881167545609	1
0	1984	3324.455378833822	1
0	1987	3326.122395525699	1
0	1988	3328.963247944411	1
0	1991	3331.352837881967	1
0	1996	3340.121411107085	1
0	1997	3341.120688796688	1
0	1998	3344.680729124812	1
0	2003	3352.449456634973	1
0	2004	3352.901142855381	1
0	2005	3353.193782350114	1
0	2008	3358.588416892612	1
0	2011	3364.558483745588	1
0	2014	3365.715588605364	1
0	2017	3373.256664763499	1
0	2022	3382.652256934549	1
0	2027	3390.164320903103	1
0	2030	3395.882774006036	1
0	2031	3397.384399407464	1
0	2032	3398.366708836948	1
0	2035	3400.707241103122	1
0	2036	3401.069336653695	1
0	2039	3405.498139883844	1
0	2040	3405.546816930547	1
0	2041	3407.139736169942	1
0	2046	3418.270156117151	1
0	2049	3420.587106254851	1
0	2050	3421.30337136176	1
0	2051	3422.400712166229	1
0	2054	3429.953020172349	1
0	2057	3433.03261659127	1
0	2064	3445.994859635187	1
0	2065	3446.223049882665	1
0	2068	3452.502517304367	1
0	2073	3460.544606549796	1
0	2074	3463.919361418062	1
0	2075	3464.319755697782	1
0	2078	3467.48941633024	1
0	2081	3471.147143025903	1
0	2086	3481.862641528052	1
0	2087	3483.694897987215	1
0	2090	3487.046057370095	1
0	2093	3491.354394829071	1
0	2094	3494.031416584538	1
0	2103	3510.055460732597	1
0	2104	3511.011940962089	1
0	2107	3516.198166432603	1
0	2108	3519.422708888433	1
0	2109	3519.60272303718	1
0	2114	3527.256965131897	1
0	2117	3530.071091140983	1
0	2118	3534.135582946911	1
0	2121	3537.702504360915	1
0	2122	3538.573480162786	1
0	2125	3542.414746872123	1
0	2126	3543.191174799648	1
0	2129	3548.910151695242	1
0	2132	3554.151597220023	1
0	2135	3555.777451572466	1
0	2136	3559.651663469986	1
0	2139	3560.341429629633	1
0	2140	3562.311717489368	1
0	2141	3564.805179153718	1
0	2144	3565.600239237715	1
0	2151	3581.264386685448	1
0	2152	3582.135380268363	1
0	2153	3583.171306179619	1
0	2154	3583.864240286734	1
0	2161	3595.580439937197	1
0	2162	3599.905130484343	1
1	2	5	0
1	5	10	0
1	8	15	0
1	10	20	0
1	13	25	0
1	16	30	0
1	18	35	0
1	21	40	0
1	24	45	0
1	26	50	0
1	30	55	0
1	33	60	0
1	36	65	0
1	40	70	0
1	43	75	0
1	45	80	0
1	49	85	0
1	51	90	0
1	53	95	0
1	56	100	0
1	60	105	0
1	63	110	0
1	66	115	0
1	68	120	0
1	71	125	0
1	74	130	0
1	78	135	0
1	81	140	0
1	83	145	0
1	86	150	0
1	88	155	0
1	92	160	0
1	96	165	0
1	101	170	0
1	103	175	0
1	106	180	0
1	108	185	0
1	110	190	0
1	113	195	0
1	115	200	0
1	119	205	0
1	121	210	0
1	124	215	0
1	126	220	0
1	129	225	0
1	131	230	0
1	133	235	0
1	135	240	0
1	138	245	0
1	141	250	0
1	144	255	0
1	146	260	0
1	150	265	0
1	153	270	0
1	155	275	0
1	158	280	0
1	162	285	0
1	165	290	0
1	168	295	0
1	172	300	0
1	175	305	0
1	177	310	0
1	179	315	0
1	182	320	0
1	185	325	0
1	189	330	0
1	193	335	0
1	197	340	0
1	200	345	0
1	202	350	0
1	206	355	0
1	211	360	0
1	215	365	0
1	219	370	0
1	223	375	0
1	226	380	0
1	229	385	0
1	231	390	0
1	233	395	0
1	236	400	0
1	238	405	0
1	241	410	0
1	244	415	0
1	248	420	0
1	251	425	0
1	254	430	0
1	256	435	0
1	259	440	0
1	264	445	0
1	266	450	0
1	268	455	0
1	270	460	0
1	273	465	0
1	276	470	0
1	279	475	0
1	284	480	0
1	288	485	0
1	291	490	0
1	294	495	0
1	298	500	0
1	303	505	0
1	306	510	0
1	309	515	0
1	311	520	0
1	313	525	0
1	315	530	0
1	317	535	0
1	320	540	0
1	322	545	0
1	324	550	0
1	328	555	0
1	332	560	0
1	336	565	0
1	338	570	0
1	340	575	0
1	342	580	0
1	344	585	0
1	346	590	0
1	349	595	0
1	352	600	0
1	357	605	0
1	360	610	0
1	364	615	0
1	368	620	0
1	372	625	0
1	375	630	0
1	380	635	0
1	382	640	0
1	386	645	0
1	388	650	0
1	390	655	0
1	393	660	0
1	396	665	0
1	399	670	0
1	404	675	0
1	407	680	0
1	409	685	0
1	412	690	0
1	416	695	0
1	418	700	0
1	420	705	0
1	422	710	0
1	425	715	0
1	427	720	0
1	429	725	0
1	431	730	0
1	434	735	0
1	436	740	0
1	439	745	0
1	443	750	0
1	445	755	0
1	447	760	0
1	449	765	0
1	453	770	0
1	456	775	0
1	459	780	0
1	464	785	0
1	468	790	0
1	470	795	0
1	472	800	0
1	474	805	0
1	479	810	0
1	483	815	0
1	486	820	0
1	490	825	0
1	492	830	0
1	495	835	0
1	498	840	0
1	500	845	0
1	504	850	0
1	507	855	0
1	510	860	0
1	514	865	0
1	516	870	0
1	519	875	0
1	523	880	0
1	526	885	0
1	528	890	0
1	530	895	0
1	534	900	0
1	536	905	0
1	539	910	0
1	543	915	0
1	545	920	0
1	547	925	0
1	551	930	0
1	555	935	0
1	558	940	0
1	560	945	0
1	564	950	0
1	567	955	0
1	570	960	0
1	572	965	0
1	577	970	0
1	581	975	0
1	584	980	0
1	589	985	0
1	591	990	0
1	597	995	0
1	599	1000	0
1	603	1005	0
1	606	1010	0
1	609	1015	0
1	612	1020	0
1	615	1025	0
1	617	1030	0
1	619	1035	0
1	623	1040	0
1	626	1045	0
1	629	1050	0
1	632	1055	0
1	636	1060	0
1	638	1065	0
1	640	1070	0
1	643	1075	0
1	646	1080	0
1	650	1085	0
1	652	1090	0
1	655	1095	0
1	657	1100	0
1	659	1105	0
1	662	1110	0
1	665	1115	0
1	669	1120	0
1	671	1125	0
1	674	1130	0
1	676	1135	0
1	678	1140	0
1	680	1145	0
1	683	1150	0
1	687	1155	0
1	690	1160	0
1	693	1165	0
1	695	1170	0
1	699	1175	0
1	702	1180	0
1	705	1185	0
1	707	1190	0
1	710	1195	0
1	714	1200	0
1	717	1205	0
1	719	1210	0
1	722	1215	0
1	724	1220	0
1	726	1225	0
1	729	1230	0
1	732	1235	0
1	735	1240	0
1	737	1245	0
1	740	1250	0
1	744	1255	0
1	747	1260	0
1	749	1265	0
1	751	1270	0
1	754	1275	0
1	757	1280	0
1	761	1285	0
1	764	1290	0
1	767	1295	0
1	772	1300	0
1	776	1305	0
1	779	1310	0
1	781	1315	0
1	786	1320	0
1	789	1325	0
1	792	1330	0
1	795	1335	0
1	798	1340	0
1	800	1345	0
1	807	1350	0
1	810	1355	0
1	813	1360	0
1	817	1365	0
1	821	1370	0
1	824	1375	0
1	826	1380	0
1	828	1385	0
1	830	1390	0
1	833	1395	0
1	837	1400	0
1	841	1405	0
1	843	1410	0
1	846	1415	0
1	851	1420	0
1	854	1425	0
1	856	1430	0
1	858	1435	0
1	860	1440	0
1	863	1445	0
1	865	1450	0
1	869	1455	0
1	871	1460	0
1	874	1465	0
1	877	1470	0
1	880	1475	0
1	885	1480	0
1	887	1485	0
1	890	1490	0
1	893	1495	0
1	896	1500	0
1	899	1505	0
1	901	1510	0
1	903	1515	0
1	905	1520	0
1	907	1525	0
1	909	1530	0
1	912	1535	0
1	914	1540	0
1	918	1545	0
1	920	1550	0
1	922	1555	0
1	925	1560	0
1	927	1565	0
1	932	1570	0
1	935	1575	0
1	940	1580	0
1	943	1585	0
1	945	1590	0
1	948	1595	0
1	950	1600	0
1	953	1605	0
1	955	1610	0
1	959	1615	0
1	963	1620	0
1	968	1625	0
1	970	1630	0
1	972	1635	0
1	974	1640	0
1	977	1645	0
1	980	1650	0
1	984	1655	0
1	987	1660	0
1	991	1665	0
1	993	1670	0
1	996	1675	0
1	999	1680	0
1	1001	1685	0
1	1003	1690	0
1	1006	1695	0
1	1009	1700	0
1	1012	1705	0
1	1016	1710	0
1	1019	1715	0
1	1022	1720	0
1	1024	1725	0
1	1027	1730	0
1	1029	1735	0
1	1032	1740	0
1	1036	1745	0
1	1039	1750	0
1	1044	1755	0
1	1051	1760	0
1	1053	1765	0
1	1057	1770	0
1	1060	1775	0
1	1062	1780	0
1	1066	1785	0
1	1068	1790	0
1	1070	1795	0
1	1073	1800	0
1	1075	1805	0
1	1077	1810	0
1	1080	1815	0
1	1083	1820	0
1	1086	1825	0
1	1090	1830	0
1	1093	1835	0
1	1097	1840	0
1	1101	1845	0
1	1104	1850	0
1	1107	1855	0
1	1110	1860	0
1	1112	1865	0
1	1114	1870	0
1	1116	1875	0
1	1118	1880	0
1	1121	1885	0
1	1123	1890	0
1	1126	1895	0
1	1130	1900	0
1	1132	1905	0
1	1136	1910	0
1	1138	1915	0
1	1141	1920	0
1	1144	1925	0
1	1146	1930	0
1	1149	1935	0
1	1152	1940	0
1	1154	1945	0
1	1156	1950	0
1	1159	1955	0
1	1163	1960	0
1	1168	1965	0
1	1173	1970	0
1	1175	1975	0
1	1177	1980	0
1	1180	1985	0
1	1183	1990	0
1	1186	1995	0
1	1189	2000	0
1	1192	2005	0
1	1194	2010	0
1	1196	2015	0
1	1200	2020	0
1	1203	2025	0
1	1209	2030	0
1	1213	2035	0
1	1216	2040	0
1	1218	2045	0
1	1221	2050	0
1	1224	2055	0
1	1226	2060	0
1	1228	2065	0
1	1230	2070	0
1	1234	2075	0
1	1238	2080	0
1	1242	2085	0
1	1244	2090	0
1	1248	2095	0
1	1251	2100	0
1	1253	2105	0
1	1257	2110	0
1	1260	2115	0
1	1263	2120	0
1	1266	2125	0
1	1269	2130	0
1	1271	2135	0
1	1274	2140	0
1	1277	2145	0
1	1279	2150	0
1	1281	2155	0
1	1283	2160	0
1	1285	2165	0
1	1289	2170	0
1	1293	2175	0
1	1296	2180	0
1	1298	2185	0
1	1300	2190	0
1	1306	2195	0
1	1309	2200	0
1	1312	2205	0
1	1314	2210	0
1	1318	2215	0
1	1320	2220	0
1	1322	2225	0
1	1326	2230	0
1	1329	2235	0
1	1332	2240	0
1	1335	2245	0
1	1338	2250	0
1	1341	2255	0
1	1345	2260	0
1	1347	2265	0
1	1350	2270	0
1	1355	2275	0
1	1357	2280	0
1	1360	2285	0
1	1362	2290	0
1	1366	2295	0
1	1368	2300	0
1	1371	2305	0
1	1373	2310	0
1	1375	2315	0
1	1379	2320	0
1	1382	2325	0
1	1386	2330	0
1	1388	2335	0
1	1391	2340	0
1	1393	2345	0
1	1395	2350	0
1	1399	2355	0
1	1402	2360	0
1	1404	2365	0
1	1407	2370	0
1	1412	2375	0
1	1414	2380	0
1	1416	2385	0
1	1418	2390	0
1	1422	2395	0
1	1426	2400	0
1	1430	2405	0
1	1434	2410	0
1	1437	2415	0
1	1440	2420	0
1	1443	2425	0
1	1449	2430	0
1	1452	2435	0
1	1454	2440	0
1	1457	2445	0
1	1459	2450	0
1	1462	2455	0
1	1466	2460	0
1	1469	2465	0
1	1472	2470	0
1	1477	2475	0
1	1480	2480	0
1	1483	2485	0
1	1487	2490	0
1	1490	2495	0
1	1492	2500	0
1	1496	2505	0
1	1501	2510	0
1	1506	2515	0
1	1509	2520	0
1	1511	2525	0
1	1513	2530	0
1	1517	2535	0
1	1519	2540	0
1	1522	2545	0
1	1525	2550	0
1	1528	2555	0
1	1531	2560	0
1	1533	2565	0
1	1538	2570	0
1	1540	2575	0
1	1544	2580	0
1	1546	2585	0
1	1549	2590	0
1	1553	2595	0
1	1555	2600	0
1	1557	2605	0
1	1561	2610	0
1	1566	2615	0
1	1572	2620	0
1	1575	2625	0
1	1577	2630	0
1	1579	2635	0
1	1583	2640	0
1	1586	2645	0
1	1588	2650	0
1	1591	2655	0
1	1594	2660	0
1	1596	2665	0
1	1598	2670	0
1	1600	2675	0
1	1602	2680	0
1	1606	2685	0
1	1609	2690	0
1	1614	2695	0
1	1617	2700	0
1	1621	2705	0
1	1623	2710	0
1	1625	2715	0
1	1627	2720	0
1	1630	2725	0
1	1632	2730	0
1	1635	2735	0
1	1637	2740	0
1	1640	2745	0
1	1645	2750	0
1	1647	2755	0
1	1649	2760	0
1	1651	2765	0
1	1655	2770	0
1	1658	2775	0
1	1660	2780	0
1	1663	2785	0
1	1665	2790	0
1	1667	2795	0
1	1671	2800	0
1	1673	2805	0
1	1675	2810	0
1	1678	2815	0
1	1681	2820	0
1	1683	2825	0
1	1686	2830	0
1	1689	2835	0
1	1692	2840	0
1	1695	2845	0
1	1697	2850	0
1	1700	2855	0
1	1704	2860	0
1	1706	2865	0
1	1709	2870	0
1	1711	2875	0
1	1715	2880	0
1	1718	2885	0
1	1720	2890	0
1	1724	2895	0
1	1726	2900	0
1	1728	2905	0
1	1731	2910	0
1	1734	2915	0
1	1736	2920	0
1	1740	2925	0
1	1743	2930	0
1	1745	2935	0
1	1747	2940	0
1	1749	2945	0
1	1752	2950	0
1	1754	2955	0
1	1756	2960	0
1	1758	2965	0
1	1761	2970	0
1	1764	2975	0
1	1766	2980	0
1	1771	2985	0
1	1774	2990	0
1	1778	2995	0
1	1783	3000	0
1	1785	3005	0
1	1789	3010	0
1	1793	3015	0
1	1798	3020	0
1	1800	3025	0
1	1802	3030	0
1	1804	3035	0
1	1808	3040	0
1	1811	3045	0
1	1813	3050	0
1	1816	3055	0
1	1819	3060	0
1	1821	3065	0
1	1823	3070	0
1	1826	3075	0
1	1829	3080	0
1	1831	3085	0
1	1833	3090	0
1	1836	3095	0
1	1839	3100	0
1	1841	3105	0
1	1843	3110	0
1	1847	3115	0
1	1849	3120	0
1	1853	3125	0
1	1858	3130	0
1	1862	3135	0
1	1864	3140	0
1	1868	3145	0
1	1870	3150	0
1	1873	3155	0
1	1878	3160	0
1	1880	3165	0
1	1882	3170	0
1	1885	3175	0
1	1890	3180	0
1	1893	3185	0
1	1895	3190	0
1	1900	3195	0
1	1902	3200	0
1	1906	3205	0
1	1910	3210	0
1	1913	3215	0
1	1916	3220	0
1	1918	3225	0
1	1922	3230	0
1	1926	3235	0
1	1929	3240	0
1	1932	3245	0
1	1934	3250	0
1	1937	3255	0
1	1939	3260	0
1	1942	3265	0
1	1945	3270	0
1	1950	3275	0
1	1954	3280	0
1	1959	3285	0
1	1963	3290	0
1	1967	3295	0
1	1970	3300	0
1	1973	3305	0
1	1977	3310	0
1	1980	3315	0
1	1982	3320	0
1	1985	3325	0
1	1989	3330	0
1	1992	3335	0
1	1994	3340	0
1	1999	3345	0
1	2001	3350	0
1	2006	3355	0
1	2009	3360	0
1	2012	3365	0
1	2015	3370	0
1	2018	3375	0
1	2020	3380	0
1	2023	3385	0
1	2025	3390	0
1	2028	3395	0
1	2033	3400	0
1	2037	3405	0
1	2042	3410	0
1	2044	3415	0
1	2047	3420	0
1	2052	3425	0
1	2055	3430	0
1	2058	3435	0
1	2060	3440	0
1	2062	3445	0
1	2066	3450	0
1	2069	3455	0
1	2071	3460	0
1	2076	3465	0
1	2079	3470	0
1	2082	3475	0
1	2084	3480	0
1	2088	3485	0
1	2091	3490	0
1	2095	3495	0
1	2097	3500	0
1	2099	3505	0
1	2101	3510	0
1	2105	3515	0
1	2110	3520	0
1	2112	3525	0
1	2115	3530	0
1	2119	3535	0
1	2123	3540	0
1	2127	3545	0
1	2130	3550	0
1	2133	3555	0
1	2137	3560	0
1	2142	3565	0
1	2145	3570	0
1	2147	3575	0
1	2149	3580	0
1	2155	3585	0
1	2157	3590	0
1	2159	3595	0
1	2163	3600	0

