version 2
run FifthVerification-3-20201214-15:22:31-220958
attr configname FifthVerification
attr datetime 20201214-15:22:31
attr experiment FifthVerification
attr inifile omnetpp.ini
attr iterationvars $0=0.8
attr iterationvarsf 0.8-
attr measurement $0=0.8
attr network slottedNetwork
attr processid 220958
attr repetition 0
attr replication #0
attr resultdir results
attr runnumber 3
attr seedset 3
param **.numTransmitters 50
param **.numChannels 2
param **.bufferSize 5
param **.sendProbability 0.8
param **.expMean 4s
param **.timeSlotSize 5s
param **.thresh 20s
param **.deterministicInterarrivalTime true
param **.numTransmitters 1
param **.numChannels 1
param **.bufferSize 5
param **.sendProbability 1
param **.expMean 5s
param **.timeSlotSize 5s
param **.thresh 20s
param **.deterministicInterarrivalTime false

vector 0 slottedNetwork.transmitters[0] numPacketCreated:vector ETV
attr source numPacketCreatedSignal
vector 1 slottedNetwork.transmitters[1] numPacketCreated:vector ETV
attr source numPacketCreatedSignal
vector 2 slottedNetwork.transmitters[2] numPacketCreated:vector ETV
attr source numPacketCreatedSignal
vector 3 slottedNetwork.transmitters[3] numPacketCreated:vector ETV
attr source numPacketCreatedSignal
vector 4 slottedNetwork.transmitters[4] numPacketCreated:vector ETV
attr source numPacketCreatedSignal
vector 5 slottedNetwork.transmitters[5] numPacketCreated:vector ETV
attr source numPacketCreatedSignal
vector 6 slottedNetwork.transmitters[6] numPacketCreated:vector ETV
attr source numPacketCreatedSignal
vector 7 slottedNetwork.transmitters[7] numPacketCreated:vector ETV
attr source numPacketCreatedSignal
vector 8 slottedNetwork.transmitters[8] numPacketCreated:vector ETV
attr source numPacketCreatedSignal
vector 9 slottedNetwork.transmitters[9] numPacketCreated:vector ETV
attr source numPacketCreatedSignal
vector 10 slottedNetwork.transmitters[10] numPacketCreated:vector ETV
attr source numPacketCreatedSignal
vector 11 slottedNetwork.transmitters[11] numPacketCreated:vector ETV
attr source numPacketCreatedSignal
vector 12 slottedNetwork.transmitters[12] numPacketCreated:vector ETV
attr source numPacketCreatedSignal
vector 13 slottedNetwork.transmitters[13] numPacketCreated:vector ETV
attr source numPacketCreatedSignal
vector 14 slottedNetwork.transmitters[14] numPacketCreated:vector ETV
attr source numPacketCreatedSignal
vector 15 slottedNetwork.transmitters[15] numPacketCreated:vector ETV
attr source numPacketCreatedSignal
vector 16 slottedNetwork.transmitters[16] numPacketCreated:vector ETV
attr source numPacketCreatedSignal
vector 17 slottedNetwork.transmitters[17] numPacketCreated:vector ETV
attr source numPacketCreatedSignal
vector 18 slottedNetwork.transmitters[18] numPacketCreated:vector ETV
attr source numPacketCreatedSignal
vector 19 slottedNetwork.transmitters[19] numPacketCreated:vector ETV
attr source numPacketCreatedSignal
vector 20 slottedNetwork.transmitters[20] numPacketCreated:vector ETV
attr source numPacketCreatedSignal
vector 21 slottedNetwork.transmitters[21] numPacketCreated:vector ETV
attr source numPacketCreatedSignal
vector 22 slottedNetwork.transmitters[22] numPacketCreated:vector ETV
attr source numPacketCreatedSignal
vector 23 slottedNetwork.transmitters[23] numPacketCreated:vector ETV
attr source numPacketCreatedSignal
vector 24 slottedNetwork.transmitters[24] numPacketCreated:vector ETV
attr source numPacketCreatedSignal
vector 25 slottedNetwork.transmitters[25] numPacketCreated:vector ETV
attr source numPacketCreatedSignal
vector 26 slottedNetwork.transmitters[26] numPacketCreated:vector ETV
attr source numPacketCreatedSignal
vector 27 slottedNetwork.transmitters[27] numPacketCreated:vector ETV
attr source numPacketCreatedSignal
vector 28 slottedNetwork.transmitters[28] numPacketCreated:vector ETV
attr source numPacketCreatedSignal
vector 29 slottedNetwork.transmitters[29] numPacketCreated:vector ETV
attr source numPacketCreatedSignal
vector 30 slottedNetwork.transmitters[30] numPacketCreated:vector ETV
attr source numPacketCreatedSignal
vector 31 slottedNetwork.transmitters[31] numPacketCreated:vector ETV
attr source numPacketCreatedSignal
vector 32 slottedNetwork.transmitters[32] numPacketCreated:vector ETV
attr source numPacketCreatedSignal
vector 33 slottedNetwork.transmitters[33] numPacketCreated:vector ETV
attr source numPacketCreatedSignal
vector 34 slottedNetwork.transmitters[34] numPacketCreated:vector ETV
attr source numPacketCreatedSignal
vector 35 slottedNetwork.transmitters[35] numPacketCreated:vector ETV
attr source numPacketCreatedSignal
vector 36 slottedNetwork.transmitters[36] numPacketCreated:vector ETV
attr source numPacketCreatedSignal
vector 37 slottedNetwork.transmitters[37] numPacketCreated:vector ETV
attr source numPacketCreatedSignal
vector 38 slottedNetwork.transmitters[38] numPacketCreated:vector ETV
attr source numPacketCreatedSignal
vector 39 slottedNetwork.transmitters[39] numPacketCreated:vector ETV
attr source numPacketCreatedSignal
vector 40 slottedNetwork.transmitters[40] numPacketCreated:vector ETV
attr source numPacketCreatedSignal
vector 41 slottedNetwork.transmitters[41] numPacketCreated:vector ETV
attr source numPacketCreatedSignal
vector 42 slottedNetwork.transmitters[42] numPacketCreated:vector ETV
attr source numPacketCreatedSignal
vector 43 slottedNetwork.transmitters[43] numPacketCreated:vector ETV
attr source numPacketCreatedSignal
vector 44 slottedNetwork.transmitters[44] numPacketCreated:vector ETV
attr source numPacketCreatedSignal
vector 45 slottedNetwork.transmitters[45] numPacketCreated:vector ETV
attr source numPacketCreatedSignal
vector 46 slottedNetwork.transmitters[46] numPacketCreated:vector ETV
attr source numPacketCreatedSignal
vector 47 slottedNetwork.transmitters[47] numPacketCreated:vector ETV
attr source numPacketCreatedSignal
vector 48 slottedNetwork.transmitters[48] numPacketCreated:vector ETV
attr source numPacketCreatedSignal
vector 49 slottedNetwork.transmitters[49] numPacketCreated:vector ETV
attr source numPacketCreatedSignal
vector 50 slottedNetwork.ch throughput:vector ETV
attr source throughputSignal
vector 51 slottedNetwork.receivers[41] numPacketReceived:vector ETV
attr source numPacketReceivedSignal
vector 52 slottedNetwork.receivers[41] responseTime:vector ETV
attr source responseTimeSignal
vector 53 slottedNetwork.receivers[41] threshold:vector ETV
attr source thresholdSignal
vector 54 slottedNetwork.receivers[45] numPacketReceived:vector ETV
attr source numPacketReceivedSignal
vector 55 slottedNetwork.receivers[45] responseTime:vector ETV
attr source responseTimeSignal
vector 56 slottedNetwork.receivers[45] threshold:vector ETV
attr source thresholdSignal
vector 57 slottedNetwork.transmitters[0] numPacketDiscarded:vector ETV
attr source numPacketDiscardedSignal
vector 58 slottedNetwork.transmitters[1] numPacketDiscarded:vector ETV
attr source numPacketDiscardedSignal
vector 59 slottedNetwork.transmitters[2] numPacketDiscarded:vector ETV
attr source numPacketDiscardedSignal
vector 60 slottedNetwork.transmitters[3] numPacketDiscarded:vector ETV
attr source numPacketDiscardedSignal
vector 61 slottedNetwork.transmitters[4] numPacketDiscarded:vector ETV
attr source numPacketDiscardedSignal
vector 62 slottedNetwork.transmitters[5] numPacketDiscarded:vector ETV
attr source numPacketDiscardedSignal
vector 63 slottedNetwork.transmitters[6] numPacketDiscarded:vector ETV
attr source numPacketDiscardedSignal
vector 64 slottedNetwork.transmitters[7] numPacketDiscarded:vector ETV
attr source numPacketDiscardedSignal
vector 65 slottedNetwork.transmitters[8] numPacketDiscarded:vector ETV
attr source numPacketDiscardedSignal
vector 66 slottedNetwork.transmitters[9] numPacketDiscarded:vector ETV
attr source numPacketDiscardedSignal
vector 67 slottedNetwork.transmitters[10] numPacketDiscarded:vector ETV
attr source numPacketDiscardedSignal
vector 68 slottedNetwork.transmitters[11] numPacketDiscarded:vector ETV
attr source numPacketDiscardedSignal
vector 69 slottedNetwork.transmitters[12] numPacketDiscarded:vector ETV
attr source numPacketDiscardedSignal
vector 70 slottedNetwork.transmitters[13] numPacketDiscarded:vector ETV
attr source numPacketDiscardedSignal
vector 71 slottedNetwork.transmitters[14] numPacketDiscarded:vector ETV
attr source numPacketDiscardedSignal
vector 72 slottedNetwork.transmitters[15] numPacketDiscarded:vector ETV
attr source numPacketDiscardedSignal
vector 73 slottedNetwork.transmitters[16] numPacketDiscarded:vector ETV
attr source numPacketDiscardedSignal
vector 74 slottedNetwork.transmitters[17] numPacketDiscarded:vector ETV
attr source numPacketDiscardedSignal
vector 75 slottedNetwork.transmitters[18] numPacketDiscarded:vector ETV
attr source numPacketDiscardedSignal
vector 76 slottedNetwork.transmitters[19] numPacketDiscarded:vector ETV
attr source numPacketDiscardedSignal
vector 77 slottedNetwork.transmitters[20] numPacketDiscarded:vector ETV
attr source numPacketDiscardedSignal
vector 78 slottedNetwork.transmitters[21] numPacketDiscarded:vector ETV
attr source numPacketDiscardedSignal
vector 79 slottedNetwork.transmitters[22] numPacketDiscarded:vector ETV
attr source numPacketDiscardedSignal
vector 80 slottedNetwork.transmitters[23] numPacketDiscarded:vector ETV
attr source numPacketDiscardedSignal
vector 81 slottedNetwork.transmitters[24] numPacketDiscarded:vector ETV
attr source numPacketDiscardedSignal
vector 82 slottedNetwork.transmitters[25] numPacketDiscarded:vector ETV
attr source numPacketDiscardedSignal
vector 83 slottedNetwork.transmitters[26] numPacketDiscarded:vector ETV
attr source numPacketDiscardedSignal
vector 84 slottedNetwork.transmitters[27] numPacketDiscarded:vector ETV
attr source numPacketDiscardedSignal
vector 85 slottedNetwork.transmitters[28] numPacketDiscarded:vector ETV
attr source numPacketDiscardedSignal
vector 86 slottedNetwork.transmitters[29] numPacketDiscarded:vector ETV
attr source numPacketDiscardedSignal
vector 87 slottedNetwork.transmitters[30] numPacketDiscarded:vector ETV
attr source numPacketDiscardedSignal
vector 88 slottedNetwork.transmitters[31] numPacketDiscarded:vector ETV
attr source numPacketDiscardedSignal
vector 89 slottedNetwork.transmitters[32] numPacketDiscarded:vector ETV
attr source numPacketDiscardedSignal
vector 90 slottedNetwork.transmitters[33] numPacketDiscarded:vector ETV
attr source numPacketDiscardedSignal
vector 91 slottedNetwork.transmitters[34] numPacketDiscarded:vector ETV
attr source numPacketDiscardedSignal
vector 92 slottedNetwork.transmitters[35] numPacketDiscarded:vector ETV
attr source numPacketDiscardedSignal
vector 93 slottedNetwork.transmitters[36] numPacketDiscarded:vector ETV
attr source numPacketDiscardedSignal
vector 94 slottedNetwork.transmitters[37] numPacketDiscarded:vector ETV
attr source numPacketDiscardedSignal
vector 95 slottedNetwork.transmitters[38] numPacketDiscarded:vector ETV
attr source numPacketDiscardedSignal
vector 96 slottedNetwork.transmitters[39] numPacketDiscarded:vector ETV
attr source numPacketDiscardedSignal
vector 97 slottedNetwork.transmitters[40] numPacketDiscarded:vector ETV
attr source numPacketDiscardedSignal
vector 98 slottedNetwork.transmitters[42] numPacketDiscarded:vector ETV
attr source numPacketDiscardedSignal
vector 99 slottedNetwork.transmitters[43] numPacketDiscarded:vector ETV
attr source numPacketDiscardedSignal
vector 100 slottedNetwork.transmitters[44] numPacketDiscarded:vector ETV
attr source numPacketDiscardedSignal
vector 101 slottedNetwork.transmitters[46] numPacketDiscarded:vector ETV
attr source numPacketDiscardedSignal
vector 102 slottedNetwork.transmitters[47] numPacketDiscarded:vector ETV
attr source numPacketDiscardedSignal
vector 103 slottedNetwork.transmitters[48] numPacketDiscarded:vector ETV
attr source numPacketDiscardedSignal
vector 104 slottedNetwork.transmitters[49] numPacketDiscarded:vector ETV
attr source numPacketDiscardedSignal
vector 105 slottedNetwork.transmitters[41] numPacketDiscarded:vector ETV
attr source numPacketDiscardedSignal
vector 106 slottedNetwork.transmitters[45] numPacketDiscarded:vector ETV
attr source numPacketDiscardedSignal
vector 107 slottedNetwork.receivers[8] numPacketReceived:vector ETV
attr source numPacketReceivedSignal
vector 108 slottedNetwork.receivers[8] responseTime:vector ETV
attr source responseTimeSignal
vector 109 slottedNetwork.receivers[8] threshold:vector ETV
attr source thresholdSignal
vector 110 slottedNetwork.receivers[25] numPacketReceived:vector ETV
attr source numPacketReceivedSignal
vector 111 slottedNetwork.receivers[25] responseTime:vector ETV
attr source responseTimeSignal
vector 112 slottedNetwork.receivers[25] threshold:vector ETV
attr source thresholdSignal
vector 113 slottedNetwork.receivers[44] numPacketReceived:vector ETV
attr source numPacketReceivedSignal
vector 114 slottedNetwork.receivers[44] responseTime:vector ETV
attr source responseTimeSignal
vector 115 slottedNetwork.receivers[44] threshold:vector ETV
attr source thresholdSignal
vector 116 slottedNetwork.receivers[21] numPacketReceived:vector ETV
attr source numPacketReceivedSignal
vector 117 slottedNetwork.receivers[21] responseTime:vector ETV
attr source responseTimeSignal
vector 118 slottedNetwork.receivers[21] threshold:vector ETV
attr source thresholdSignal
vector 119 slottedNetwork.receivers[40] numPacketReceived:vector ETV
attr source numPacketReceivedSignal
vector 120 slottedNetwork.receivers[40] responseTime:vector ETV
attr source responseTimeSignal
vector 121 slottedNetwork.receivers[40] threshold:vector ETV
attr source thresholdSignal
vector 122 slottedNetwork.receivers[22] numPacketReceived:vector ETV
attr source numPacketReceivedSignal
vector 123 slottedNetwork.receivers[22] responseTime:vector ETV
attr source responseTimeSignal
vector 124 slottedNetwork.receivers[22] threshold:vector ETV
attr source thresholdSignal
vector 125 slottedNetwork.receivers[43] numPacketReceived:vector ETV
attr source numPacketReceivedSignal
vector 126 slottedNetwork.receivers[43] responseTime:vector ETV
attr source responseTimeSignal
vector 127 slottedNetwork.receivers[43] threshold:vector ETV
attr source thresholdSignal
vector 128 slottedNetwork.receivers[28] numPacketReceived:vector ETV
attr source numPacketReceivedSignal
vector 129 slottedNetwork.receivers[28] responseTime:vector ETV
attr source responseTimeSignal
vector 130 slottedNetwork.receivers[28] threshold:vector ETV
attr source thresholdSignal
vector 131 slottedNetwork.receivers[15] numPacketReceived:vector ETV
attr source numPacketReceivedSignal
vector 132 slottedNetwork.receivers[15] responseTime:vector ETV
attr source responseTimeSignal
vector 133 slottedNetwork.receivers[15] threshold:vector ETV
attr source thresholdSignal
vector 134 slottedNetwork.receivers[20] numPacketReceived:vector ETV
attr source numPacketReceivedSignal
vector 135 slottedNetwork.receivers[20] responseTime:vector ETV
attr source responseTimeSignal
vector 136 slottedNetwork.receivers[20] threshold:vector ETV
attr source thresholdSignal
vector 137 slottedNetwork.receivers[34] numPacketReceived:vector ETV
attr source numPacketReceivedSignal
vector 138 slottedNetwork.receivers[34] responseTime:vector ETV
attr source responseTimeSignal
vector 139 slottedNetwork.receivers[34] threshold:vector ETV
attr source thresholdSignal
vector 140 slottedNetwork.receivers[30] numPacketReceived:vector ETV
attr source numPacketReceivedSignal
vector 141 slottedNetwork.receivers[30] responseTime:vector ETV
attr source responseTimeSignal
vector 142 slottedNetwork.receivers[30] threshold:vector ETV
attr source thresholdSignal
vector 143 slottedNetwork.receivers[19] numPacketReceived:vector ETV
attr source numPacketReceivedSignal
vector 144 slottedNetwork.receivers[19] responseTime:vector ETV
attr source responseTimeSignal
vector 145 slottedNetwork.receivers[19] threshold:vector ETV
attr source thresholdSignal
vector 146 slottedNetwork.receivers[11] numPacketReceived:vector ETV
attr source numPacketReceivedSignal
vector 147 slottedNetwork.receivers[11] responseTime:vector ETV
attr source responseTimeSignal
vector 148 slottedNetwork.receivers[11] threshold:vector ETV
attr source thresholdSignal
vector 149 slottedNetwork.receivers[7] numPacketReceived:vector ETV
attr source numPacketReceivedSignal
vector 150 slottedNetwork.receivers[7] responseTime:vector ETV
attr source responseTimeSignal
vector 151 slottedNetwork.receivers[7] threshold:vector ETV
attr source thresholdSignal
vector 152 slottedNetwork.receivers[3] numPacketReceived:vector ETV
attr source numPacketReceivedSignal
vector 153 slottedNetwork.receivers[3] responseTime:vector ETV
attr source responseTimeSignal
vector 154 slottedNetwork.receivers[3] threshold:vector ETV
attr source thresholdSignal
vector 155 slottedNetwork.receivers[33] numPacketReceived:vector ETV
attr source numPacketReceivedSignal
vector 156 slottedNetwork.receivers[33] responseTime:vector ETV
attr source responseTimeSignal
vector 157 slottedNetwork.receivers[33] threshold:vector ETV
attr source thresholdSignal
vector 158 slottedNetwork.receivers[32] numPacketReceived:vector ETV
attr source numPacketReceivedSignal
vector 159 slottedNetwork.receivers[32] responseTime:vector ETV
attr source responseTimeSignal
vector 160 slottedNetwork.receivers[32] threshold:vector ETV
attr source thresholdSignal
vector 161 slottedNetwork.receivers[18] numPacketReceived:vector ETV
attr source numPacketReceivedSignal
vector 162 slottedNetwork.receivers[18] responseTime:vector ETV
attr source responseTimeSignal
vector 163 slottedNetwork.receivers[18] threshold:vector ETV
attr source thresholdSignal
vector 164 slottedNetwork.receivers[37] numPacketReceived:vector ETV
attr source numPacketReceivedSignal
vector 165 slottedNetwork.receivers[37] responseTime:vector ETV
attr source responseTimeSignal
vector 166 slottedNetwork.receivers[37] threshold:vector ETV
attr source thresholdSignal
vector 167 slottedNetwork.receivers[24] numPacketReceived:vector ETV
attr source numPacketReceivedSignal
vector 168 slottedNetwork.receivers[24] responseTime:vector ETV
attr source responseTimeSignal
vector 169 slottedNetwork.receivers[24] threshold:vector ETV
attr source thresholdSignal
vector 170 slottedNetwork.receivers[14] numPacketReceived:vector ETV
attr source numPacketReceivedSignal
vector 171 slottedNetwork.receivers[14] responseTime:vector ETV
attr source responseTimeSignal
vector 172 slottedNetwork.receivers[14] threshold:vector ETV
attr source thresholdSignal
vector 173 slottedNetwork.receivers[39] numPacketReceived:vector ETV
attr source numPacketReceivedSignal
vector 174 slottedNetwork.receivers[39] responseTime:vector ETV
attr source responseTimeSignal
vector 175 slottedNetwork.receivers[39] threshold:vector ETV
attr source thresholdSignal
vector 176 slottedNetwork.receivers[9] numPacketReceived:vector ETV
attr source numPacketReceivedSignal
vector 177 slottedNetwork.receivers[9] responseTime:vector ETV
attr source responseTimeSignal
vector 178 slottedNetwork.receivers[9] threshold:vector ETV
attr source thresholdSignal
vector 179 slottedNetwork.receivers[36] numPacketReceived:vector ETV
attr source numPacketReceivedSignal
vector 180 slottedNetwork.receivers[36] responseTime:vector ETV
attr source responseTimeSignal
vector 181 slottedNetwork.receivers[36] threshold:vector ETV
attr source thresholdSignal
vector 182 slottedNetwork.receivers[2] numPacketReceived:vector ETV
attr source numPacketReceivedSignal
vector 183 slottedNetwork.receivers[2] responseTime:vector ETV
attr source responseTimeSignal
vector 184 slottedNetwork.receivers[2] threshold:vector ETV
attr source thresholdSignal
vector 185 slottedNetwork.receivers[47] numPacketReceived:vector ETV
attr source numPacketReceivedSignal
vector 186 slottedNetwork.receivers[47] responseTime:vector ETV
attr source responseTimeSignal
vector 187 slottedNetwork.receivers[47] threshold:vector ETV
attr source thresholdSignal
vector 188 slottedNetwork.receivers[46] numPacketReceived:vector ETV
attr source numPacketReceivedSignal
vector 189 slottedNetwork.receivers[46] responseTime:vector ETV
attr source responseTimeSignal
vector 190 slottedNetwork.receivers[46] threshold:vector ETV
attr source thresholdSignal
vector 191 slottedNetwork.receivers[1] numPacketReceived:vector ETV
attr source numPacketReceivedSignal
vector 192 slottedNetwork.receivers[1] responseTime:vector ETV
attr source responseTimeSignal
vector 193 slottedNetwork.receivers[1] threshold:vector ETV
attr source thresholdSignal
vector 194 slottedNetwork.receivers[31] numPacketReceived:vector ETV
attr source numPacketReceivedSignal
vector 195 slottedNetwork.receivers[31] responseTime:vector ETV
attr source responseTimeSignal
vector 196 slottedNetwork.receivers[31] threshold:vector ETV
attr source thresholdSignal
vector 197 slottedNetwork.receivers[29] numPacketReceived:vector ETV
attr source numPacketReceivedSignal
vector 198 slottedNetwork.receivers[29] responseTime:vector ETV
attr source responseTimeSignal
vector 199 slottedNetwork.receivers[29] threshold:vector ETV
attr source thresholdSignal
vector 200 slottedNetwork.receivers[42] numPacketReceived:vector ETV
attr source numPacketReceivedSignal
vector 201 slottedNetwork.receivers[42] responseTime:vector ETV
attr source responseTimeSignal
vector 202 slottedNetwork.receivers[42] threshold:vector ETV
attr source thresholdSignal
vector 203 slottedNetwork.receivers[12] numPacketReceived:vector ETV
attr source numPacketReceivedSignal
vector 204 slottedNetwork.receivers[12] responseTime:vector ETV
attr source responseTimeSignal
vector 205 slottedNetwork.receivers[12] threshold:vector ETV
attr source thresholdSignal
vector 206 slottedNetwork.receivers[17] numPacketReceived:vector ETV
attr source numPacketReceivedSignal
vector 207 slottedNetwork.receivers[17] responseTime:vector ETV
attr source responseTimeSignal
vector 208 slottedNetwork.receivers[17] threshold:vector ETV
attr source thresholdSignal
vector 209 slottedNetwork.receivers[23] numPacketReceived:vector ETV
attr source numPacketReceivedSignal
vector 210 slottedNetwork.receivers[23] responseTime:vector ETV
attr source responseTimeSignal
vector 211 slottedNetwork.receivers[23] threshold:vector ETV
attr source thresholdSignal
vector 212 slottedNetwork.receivers[5] numPacketReceived:vector ETV
attr source numPacketReceivedSignal
vector 213 slottedNetwork.receivers[5] responseTime:vector ETV
attr source responseTimeSignal
vector 214 slottedNetwork.receivers[5] threshold:vector ETV
attr source thresholdSignal
vector 215 slottedNetwork.receivers[16] numPacketReceived:vector ETV
attr source numPacketReceivedSignal
vector 216 slottedNetwork.receivers[16] responseTime:vector ETV
attr source responseTimeSignal
vector 217 slottedNetwork.receivers[16] threshold:vector ETV
attr source thresholdSignal
vector 218 slottedNetwork.receivers[26] numPacketReceived:vector ETV
attr source numPacketReceivedSignal
vector 219 slottedNetwork.receivers[26] responseTime:vector ETV
attr source responseTimeSignal
vector 220 slottedNetwork.receivers[26] threshold:vector ETV
attr source thresholdSignal
vector 221 slottedNetwork.receivers[27] numPacketReceived:vector ETV
attr source numPacketReceivedSignal
vector 222 slottedNetwork.receivers[27] responseTime:vector ETV
attr source responseTimeSignal
vector 223 slottedNetwork.receivers[27] threshold:vector ETV
attr source thresholdSignal
vector 224 slottedNetwork.receivers[4] numPacketReceived:vector ETV
attr source numPacketReceivedSignal
vector 225 slottedNetwork.receivers[4] responseTime:vector ETV
attr source responseTimeSignal
vector 226 slottedNetwork.receivers[4] threshold:vector ETV
attr source thresholdSignal
vector 227 slottedNetwork.receivers[6] numPacketReceived:vector ETV
attr source numPacketReceivedSignal
vector 228 slottedNetwork.receivers[6] responseTime:vector ETV
attr source responseTimeSignal
vector 229 slottedNetwork.receivers[6] threshold:vector ETV
attr source thresholdSignal
0	1	4	1
0	143	8	1
0	251	12	1
0	354	16	1
0	405	20	1
0	522	24	1
0	630	28	1
0	738	32	1
0	854	36	1
0	905	40	1
0	1017	44	1
0	1121	48	1
0	1227	52	1
0	1335	56	1
0	1386	60	1
0	1499	64	1
0	1607	68	1
0	1714	72	1
0	1824	76	1
0	1875	80	1
0	1981	84	1
0	2085	88	1
0	2191	92	1
0	2297	96	1
0	2348	100	1
0	2451	104	1
0	2558	108	1
0	2665	112	1
0	2774	116	1
0	2825	120	1
0	2929	124	1
0	3036	128	1
0	3143	132	1
0	3250	136	1
0	3301	140	1
0	3407	144	1
0	3511	148	1
0	3615	152	1
0	3721	156	1
0	3772	160	1
0	3878	164	1
0	3986	168	1
0	4087	172	1
0	4193	176	1
0	4244	180	1
0	4349	184	1
0	4452	188	1
0	4557	192	1
0	4664	196	1
0	4715	200	1
0	4820	204	1
0	4925	208	1
0	5031	212	1
0	5136	216	1
0	5187	220	1
0	5290	224	1
0	5399	228	1
0	5502	232	1
0	5604	236	1
0	5655	240	1
0	5758	244	1
0	5862	248	1
0	5971	252	1
0	6077	256	1
0	6128	260	1
0	6231	264	1
0	6337	268	1
0	6441	272	1
0	6546	276	1
0	6597	280	1
0	6703	284	1
0	6806	288	1
0	6911	292	1
0	7019	296	1
0	7070	300	1
0	7173	304	1
0	7277	308	1
0	7383	312	1
0	7488	316	1
0	7539	320	1
0	7644	324	1
0	7745	328	1
0	7847	332	1
0	7953	336	1
0	8004	340	1
0	8106	344	1
0	8208	348	1
0	8313	352	1
0	8415	356	1
0	8466	360	1
0	8569	364	1
0	8677	368	1
0	8781	372	1
0	8885	376	1
0	8936	380	1
0	9041	384	1
0	9146	388	1
0	9253	392	1
0	9354	396	1
0	9405	400	1
0	9506	404	1
0	9611	408	1
0	9714	412	1
0	9821	416	1
0	9872	420	1
0	9974	424	1
0	10080	428	1
0	10184	432	1
0	10287	436	1
0	10338	440	1
0	10442	444	1
0	10547	448	1
0	10652	452	1
0	10757	456	1
0	10808	460	1
0	10912	464	1
0	11018	468	1
0	11120	472	1
0	11223	476	1
0	11274	480	1
0	11377	484	1
0	11484	488	1
0	11585	492	1
0	11687	496	1
0	11738	500	1
0	11843	504	1
0	11948	508	1
0	12054	512	1
0	12158	516	1
0	12209	520	1
0	12313	524	1
0	12418	528	1
0	12524	532	1
0	12628	536	1
0	12679	540	1
0	12782	544	1
0	12886	548	1
0	12990	552	1
0	13093	556	1
0	13144	560	1
0	13245	564	1
0	13347	568	1
0	13449	572	1
0	13552	576	1
0	13603	580	1
0	13708	584	1
0	13815	588	1
0	13917	592	1
0	14023	596	1
0	14074	600	1
0	14177	604	1
0	14282	608	1
0	14387	612	1
0	14491	616	1
0	14542	620	1
0	14647	624	1
0	14753	628	1
0	14855	632	1
0	14960	636	1
0	15011	640	1
0	15117	644	1
0	15222	648	1
0	15325	652	1
0	15428	656	1
0	15479	660	1
0	15583	664	1
0	15689	668	1
0	15790	672	1
0	15892	676	1
0	15943	680	1
0	16044	684	1
0	16149	688	1
0	16255	692	1
0	16358	696	1
0	16409	700	1
0	16512	704	1
0	16620	708	1
0	16724	712	1
0	16826	716	1
0	16877	720	1
0	16979	724	1
0	17085	728	1
0	17191	732	1
0	17295	736	1
0	17346	740	1
0	17450	744	1
0	17551	748	1
0	17655	752	1
0	17760	756	1
0	17811	760	1
0	17917	764	1
0	18020	768	1
0	18127	772	1
0	18234	776	1
0	18285	780	1
0	18387	784	1
0	18491	788	1
0	18594	792	1
0	18700	796	1
0	18751	800	1
0	18856	804	1
0	18962	808	1
0	19067	812	1
0	19170	816	1
0	19221	820	1
0	19326	824	1
0	19430	828	1
0	19537	832	1
0	19640	836	1
0	19691	840	1
0	19799	844	1
0	19902	848	1
0	20010	852	1
0	20113	856	1
0	20164	860	1
0	20267	864	1
0	20369	868	1
0	20474	872	1
0	20578	876	1
0	20629	880	1
0	20734	884	1
0	20837	888	1
0	20944	892	1
0	21048	896	1
0	21099	900	1
0	21204	904	1
0	21308	908	1
0	21411	912	1
0	21522	916	1
0	21573	920	1
0	21673	924	1
0	21775	928	1
0	21881	932	1
0	21986	936	1
0	22037	940	1
0	22140	944	1
0	22244	948	1
0	22348	952	1
0	22452	956	1
0	22503	960	1
0	22609	964	1
0	22714	968	1
0	22817	972	1
0	22923	976	1
0	22974	980	1
0	23075	984	1
0	23180	988	1
0	23284	992	1
0	23389	996	1
0	23440	1000	1
0	23549	1004	1
0	23653	1008	1
0	23755	1012	1
0	23861	1016	1
0	23912	1020	1
0	24014	1024	1
0	24115	1028	1
0	24220	1032	1
0	24326	1036	1
0	24377	1040	1
0	24480	1044	1
0	24587	1048	1
0	24689	1052	1
0	24794	1056	1
0	24845	1060	1
0	24947	1064	1
0	25054	1068	1
0	25157	1072	1
0	25263	1076	1
0	25314	1080	1
0	25418	1084	1
0	25520	1088	1
0	25622	1092	1
0	25726	1096	1
0	25777	1100	1
0	25883	1104	1
0	25986	1108	1
0	26088	1112	1
0	26191	1116	1
0	26242	1120	1
0	26345	1124	1
0	26450	1128	1
0	26551	1132	1
0	26654	1136	1
0	26705	1140	1
0	26809	1144	1
0	26912	1148	1
0	27018	1152	1
0	27123	1156	1
0	27174	1160	1
0	27275	1164	1
0	27378	1168	1
0	27485	1172	1
0	27589	1176	1
0	27640	1180	1
0	27745	1184	1
0	27848	1188	1
0	27954	1192	1
0	28056	1196	1
0	28107	1200	1
0	28213	1204	1
0	28316	1208	1
0	28423	1212	1
0	28525	1216	1
0	28576	1220	1
0	28679	1224	1
0	28780	1228	1
0	28885	1232	1
0	28988	1236	1
0	29039	1240	1
0	29143	1244	1
0	29247	1248	1
0	29351	1252	1
0	29457	1256	1
0	29508	1260	1
0	29609	1264	1
0	29711	1268	1
0	29815	1272	1
0	29918	1276	1
0	29969	1280	1
0	30073	1284	1
0	30178	1288	1
0	30283	1292	1
0	30386	1296	1
0	30437	1300	1
0	30541	1304	1
0	30646	1308	1
0	30753	1312	1
0	30855	1316	1
0	30906	1320	1
0	31010	1324	1
0	31116	1328	1
0	31221	1332	1
0	31323	1336	1
0	31374	1340	1
0	31478	1344	1
0	31583	1348	1
0	31688	1352	1
0	31790	1356	1
0	31841	1360	1
0	31947	1364	1
0	32051	1368	1
0	32152	1372	1
0	32253	1376	1
0	32304	1380	1
0	32406	1384	1
0	32508	1388	1
0	32612	1392	1
0	32714	1396	1
0	32765	1400	1
0	32867	1404	1
0	32971	1408	1
0	33075	1412	1
0	33180	1416	1
0	33231	1420	1
0	33333	1424	1
0	33437	1428	1
0	33539	1432	1
0	33644	1436	1
0	33695	1440	1
0	33799	1444	1
0	33901	1448	1
0	34005	1452	1
0	34110	1456	1
0	34161	1460	1
0	34264	1464	1
0	34369	1468	1
0	34476	1472	1
0	34581	1476	1
0	34632	1480	1
0	34734	1484	1
0	34840	1488	1
0	34943	1492	1
0	35050	1496	1
0	35101	1500	1
0	35202	1504	1
0	35307	1508	1
0	35408	1512	1
0	35512	1516	1
0	35563	1520	1
0	35665	1524	1
0	35768	1528	1
0	35871	1532	1
0	35978	1536	1
0	36029	1540	1
0	36131	1544	1
0	36233	1548	1
0	36338	1552	1
0	36443	1556	1
0	36494	1560	1
0	36596	1564	1
0	36701	1568	1
0	36805	1572	1
0	36907	1576	1
0	36958	1580	1
0	37059	1584	1
0	37163	1588	1
0	37265	1592	1
0	37369	1596	1
0	37420	1600	1
0	37527	1604	1
0	37629	1608	1
0	37734	1612	1
0	37840	1616	1
0	37891	1620	1
0	37997	1624	1
0	38099	1628	1
0	38204	1632	1
0	38306	1636	1
0	38357	1640	1
0	38462	1644	1
0	38564	1648	1
0	38670	1652	1
0	38773	1656	1
0	38824	1660	1
0	38926	1664	1
0	39033	1668	1
0	39134	1672	1
0	39235	1676	1
0	39286	1680	1
0	39387	1684	1
0	39491	1688	1
0	39596	1692	1
0	39701	1696	1
0	39752	1700	1
0	39854	1704	1
0	39959	1708	1
0	40063	1712	1
0	40165	1716	1
0	40216	1720	1
0	40322	1724	1
0	40426	1728	1
0	40528	1732	1
0	40635	1736	1
0	40686	1740	1
0	40788	1744	1
0	40890	1748	1
0	40995	1752	1
0	41098	1756	1
0	41149	1760	1
0	41252	1764	1
0	41357	1768	1
0	41461	1772	1
0	41562	1776	1
0	41613	1780	1
0	41714	1784	1
0	41816	1788	1
0	41920	1792	1
0	42025	1796	1
0	42076	1800	1
0	42179	1804	1
0	42280	1808	1
0	42381	1812	1
0	42487	1816	1
0	42538	1820	1
0	42639	1824	1
0	42744	1828	1
0	42848	1832	1
0	42949	1836	1
0	43000	1840	1
0	43102	1844	1
0	43208	1848	1
0	43311	1852	1
0	43416	1856	1
0	43467	1860	1
0	43572	1864	1
0	43675	1868	1
0	43783	1872	1
0	43889	1876	1
0	43940	1880	1
0	44041	1884	1
0	44145	1888	1
0	44248	1892	1
0	44353	1896	1
0	44404	1900	1
0	44507	1904	1
0	44609	1908	1
0	44713	1912	1
0	44822	1916	1
0	44873	1920	1
0	44974	1924	1
0	45078	1928	1
0	45185	1932	1
0	45287	1936	1
0	45338	1940	1
0	45443	1944	1
0	45544	1948	1
0	45646	1952	1
0	45749	1956	1
0	45800	1960	1
0	45906	1964	1
0	46010	1968	1
0	46111	1972	1
0	46213	1976	1
0	46264	1980	1
0	46367	1984	1
0	46471	1988	1
0	46574	1992	1
0	46677	1996	1
0	46728	2000	1
0	46832	2004	1
0	46936	2008	1
0	47045	2012	1
0	47149	2016	1
0	47200	2020	1
0	47306	2024	1
0	47409	2028	1
0	47514	2032	1
0	47619	2036	1
0	47670	2040	1
0	47771	2044	1
0	47876	2048	1
0	47981	2052	1
0	48087	2056	1
0	48138	2060	1
0	48243	2064	1
0	48345	2068	1
0	48449	2072	1
0	48555	2076	1
0	48606	2080	1
0	48714	2084	1
0	48816	2088	1
0	48921	2092	1
0	49025	2096	1
0	49076	2100	1
0	49180	2104	1
0	49284	2108	1
0	49386	2112	1
0	49491	2116	1
0	49542	2120	1
0	49648	2124	1
0	49751	2128	1
0	49858	2132	1
0	49960	2136	1
0	50011	2140	1
0	50113	2144	1
0	50219	2148	1
0	50323	2152	1
0	50428	2156	1
0	50479	2160	1
0	50583	2164	1
0	50687	2168	1
0	50795	2172	1
0	50896	2176	1
0	50947	2180	1
0	51049	2184	1
0	51153	2188	1
0	51255	2192	1
0	51360	2196	1
0	51411	2200	1
0	51512	2204	1
0	51615	2208	1
0	51718	2212	1
0	51822	2216	1
0	51873	2220	1
0	51975	2224	1
0	52077	2228	1
0	52182	2232	1
0	52284	2236	1
0	52335	2240	1
0	52439	2244	1
0	52545	2248	1
0	52646	2252	1
0	52748	2256	1
0	52799	2260	1
0	52907	2264	1
0	53010	2268	1
0	53112	2272	1
0	53218	2276	1
0	53269	2280	1
0	53369	2284	1
0	53472	2288	1
0	53574	2292	1
0	53677	2296	1
0	53728	2300	1
0	53832	2304	1
0	53938	2308	1
0	54042	2312	1
0	54148	2316	1
0	54199	2320	1
0	54303	2324	1
0	54407	2328	1
0	54513	2332	1
0	54616	2336	1
0	54667	2340	1
0	54769	2344	1
0	54870	2348	1
0	54974	2352	1
0	55079	2356	1
0	55130	2360	1
0	55232	2364	1
0	55334	2368	1
0	55438	2372	1
0	55544	2376	1
0	55595	2380	1
0	55699	2384	1
0	55804	2388	1
0	55907	2392	1
0	56010	2396	1
0	56061	2400	1
0	56164	2404	1
0	56268	2408	1
0	56371	2412	1
0	56477	2416	1
0	56528	2420	1
0	56629	2424	1
0	56734	2428	1
0	56836	2432	1
0	56943	2436	1
0	56994	2440	1
0	57095	2444	1
0	57198	2448	1
0	57306	2452	1
0	57408	2456	1
0	57459	2460	1
0	57561	2464	1
0	57664	2468	1
0	57770	2472	1
0	57871	2476	1
0	57922	2480	1
0	58023	2484	1
0	58126	2488	1
0	58232	2492	1
0	58333	2496	1
0	58384	2500	1
0	58484	2504	1
0	58586	2508	1
0	58688	2512	1
0	58791	2516	1
0	58842	2520	1
0	58943	2524	1
0	59046	2528	1
0	59150	2532	1
0	59251	2536	1
0	59302	2540	1
0	59402	2544	1
0	59504	2548	1
0	59608	2552	1
0	59712	2556	1
0	59763	2560	1
0	59865	2564	1
0	59969	2568	1
0	60074	2572	1
0	60180	2576	1
0	60231	2580	1
0	60333	2584	1
0	60438	2588	1
0	60539	2592	1
0	60643	2596	1
0	60694	2600	1
0	60798	2604	1
0	60904	2608	1
0	61006	2612	1
0	61111	2616	1
0	61162	2620	1
0	61264	2624	1
0	61369	2628	1
0	61472	2632	1
0	61577	2636	1
0	61628	2640	1
0	61730	2644	1
0	61835	2648	1
0	61939	2652	1
0	62041	2656	1
0	62092	2660	1
0	62195	2664	1
0	62297	2668	1
0	62403	2672	1
0	62506	2676	1
0	62557	2680	1
0	62663	2684	1
0	62766	2688	1
0	62867	2692	1
0	62969	2696	1
0	63020	2700	1
0	63122	2704	1
0	63228	2708	1
0	63334	2712	1
0	63436	2716	1
0	63487	2720	1
0	63590	2724	1
0	63696	2728	1
0	63802	2732	1
0	63907	2736	1
0	63958	2740	1
0	64060	2744	1
0	64166	2748	1
0	64270	2752	1
0	64377	2756	1
0	64428	2760	1
0	64528	2764	1
0	64629	2768	1
0	64733	2772	1
0	64837	2776	1
0	64888	2780	1
0	64991	2784	1
0	65096	2788	1
0	65202	2792	1
0	65306	2796	1
0	65357	2800	1
0	65462	2804	1
0	65566	2808	1
0	65672	2812	1
0	65775	2816	1
0	65826	2820	1
0	65929	2824	1
0	66034	2828	1
0	66138	2832	1
0	66242	2836	1
0	66293	2840	1
0	66398	2844	1
0	66500	2848	1
0	66603	2852	1
0	66708	2856	1
0	66759	2860	1
0	66862	2864	1
0	66965	2868	1
0	67070	2872	1
0	67177	2876	1
0	67228	2880	1
0	67331	2884	1
0	67438	2888	1
0	67541	2892	1
0	67647	2896	1
0	67698	2900	1
0	67800	2904	1
0	67903	2908	1
0	68010	2912	1
0	68114	2916	1
0	68165	2920	1
0	68267	2924	1
0	68372	2928	1
0	68480	2932	1
0	68582	2936	1
0	68633	2940	1
0	68734	2944	1
0	68838	2948	1
0	68943	2952	1
0	69046	2956	1
0	69097	2960	1
0	69199	2964	1
0	69303	2968	1
0	69405	2972	1
0	69510	2976	1
0	69561	2980	1
0	69666	2984	1
0	69768	2988	1
0	69872	2992	1
0	69980	2996	1
0	70031	3000	1
0	70134	3004	1
0	70235	3008	1
0	70338	3012	1
0	70441	3016	1
0	70492	3020	1
0	70598	3024	1
0	70702	3028	1
0	70805	3032	1
0	70907	3036	1
0	70958	3040	1
0	71062	3044	1
0	71168	3048	1
0	71271	3052	1
0	71375	3056	1
0	71426	3060	1
0	71527	3064	1
0	71633	3068	1
0	71736	3072	1
0	71839	3076	1
0	71890	3080	1
0	71992	3084	1
0	72096	3088	1
0	72200	3092	1
0	72301	3096	1
0	72352	3100	1
0	72454	3104	1
0	72555	3108	1
0	72659	3112	1
0	72764	3116	1
0	72815	3120	1
0	72917	3124	1
0	73021	3128	1
0	73127	3132	1
0	73233	3136	1
0	73284	3140	1
0	73384	3144	1
0	73486	3148	1
0	73590	3152	1
0	73696	3156	1
0	73747	3160	1
0	73849	3164	1
0	73954	3168	1
0	74057	3172	1
0	74162	3176	1
0	74213	3180	1
0	74316	3184	1
0	74420	3188	1
0	74523	3192	1
0	74630	3196	1
0	74681	3200	1
0	74785	3204	1
0	74890	3208	1
0	74996	3212	1
0	75100	3216	1
0	75151	3220	1
0	75255	3224	1
0	75359	3228	1
0	75465	3232	1
0	75570	3236	1
0	75621	3240	1
0	75727	3244	1
0	75830	3248	1
0	75931	3252	1
0	76033	3256	1
0	76084	3260	1
0	76187	3264	1
0	76288	3268	1
0	76390	3272	1
0	76496	3276	1
0	76547	3280	1
0	76647	3284	1
0	76749	3288	1
0	76855	3292	1
0	76959	3296	1
0	77010	3300	1
0	77114	3304	1
0	77222	3308	1
0	77326	3312	1
0	77430	3316	1
0	77481	3320	1
0	77582	3324	1
0	77686	3328	1
0	77790	3332	1
0	77894	3336	1
0	77945	3340	1
0	78046	3344	1
0	78151	3348	1
0	78254	3352	1
0	78358	3356	1
0	78409	3360	1
0	78516	3364	1
0	78620	3368	1
0	78723	3372	1
0	78827	3376	1
0	78878	3380	1
0	78984	3384	1
0	79088	3388	1
0	79193	3392	1
0	79296	3396	1
0	79347	3400	1
0	79451	3404	1
0	79555	3408	1
0	79661	3412	1
0	79767	3416	1
0	79818	3420	1
0	79923	3424	1
0	80028	3428	1
0	80131	3432	1
0	80236	3436	1
0	80287	3440	1
0	80389	3444	1
0	80494	3448	1
0	80598	3452	1
0	80702	3456	1
0	80753	3460	1
0	80854	3464	1
0	80958	3468	1
0	81060	3472	1
0	81164	3476	1
0	81215	3480	1
0	81319	3484	1
0	81422	3488	1
0	81530	3492	1
0	81632	3496	1
0	81683	3500	1
0	81784	3504	1
0	81886	3508	1
0	81991	3512	1
0	82095	3516	1
0	82146	3520	1
0	82249	3524	1
0	82351	3528	1
0	82455	3532	1
0	82561	3536	1
0	82612	3540	1
0	82714	3544	1
0	82819	3548	1
0	82928	3552	1
0	83031	3556	1
0	83082	3560	1
0	83184	3564	1
0	83290	3568	1
0	83394	3572	1
0	83497	3576	1
0	83548	3580	1
0	83650	3584	1
0	83754	3588	1
0	83857	3592	1
0	83965	3596	1
0	84016	3600	1
1	2	4	1
1	144	8	1
1	252	12	1
1	355	16	1
1	406	20	1
1	523	24	1
1	631	28	1
1	739	32	1
1	855	36	1
1	906	40	1
1	1018	44	1
1	1122	48	1
1	1228	52	1
1	1336	56	1
1	1387	60	1
1	1500	64	1
1	1608	68	1
1	1715	72	1
1	1825	76	1
1	1876	80	1
1	1982	84	1
1	2086	88	1
1	2192	92	1
1	2298	96	1
1	2349	100	1
1	2452	104	1
1	2559	108	1
1	2666	112	1
1	2775	116	1
1	2826	120	1
1	2930	124	1
1	3037	128	1
1	3144	132	1
1	3251	136	1
1	3302	140	1
1	3408	144	1
1	3512	148	1
1	3616	152	1
1	3722	156	1
1	3773	160	1
1	3879	164	1
1	3987	168	1
1	4088	172	1
1	4194	176	1
1	4245	180	1
1	4350	184	1
1	4453	188	1
1	4558	192	1
1	4665	196	1
1	4716	200	1
1	4821	204	1
1	4926	208	1
1	5032	212	1
1	5137	216	1
1	5188	220	1
1	5291	224	1
1	5400	228	1
1	5503	232	1
1	5605	236	1
1	5656	240	1
1	5759	244	1
1	5863	248	1
1	5972	252	1
1	6078	256	1
1	6129	260	1
1	6232	264	1
1	6338	268	1
1	6442	272	1
1	6547	276	1
1	6598	280	1
1	6704	284	1
1	6807	288	1
1	6912	292	1
1	7020	296	1
1	7071	300	1
1	7174	304	1
1	7278	308	1
1	7384	312	1
1	7489	316	1
1	7540	320	1
1	7645	324	1
1	7746	328	1
1	7848	332	1
1	7954	336	1
1	8005	340	1
1	8107	344	1
1	8209	348	1
1	8314	352	1
1	8416	356	1
1	8467	360	1
1	8570	364	1
1	8678	368	1
1	8782	372	1
1	8886	376	1
1	8937	380	1
1	9042	384	1
1	9147	388	1
1	9254	392	1
1	9355	396	1
1	9406	400	1
1	9507	404	1
1	9612	408	1
1	9715	412	1
1	9822	416	1
1	9873	420	1
1	9975	424	1
1	10081	428	1
1	10185	432	1
1	10288	436	1
1	10339	440	1
1	10443	444	1
1	10548	448	1
1	10653	452	1
1	10758	456	1
1	10809	460	1
1	10913	464	1
1	11019	468	1
1	11121	472	1
1	11224	476	1
1	11275	480	1
1	11378	484	1
1	11485	488	1
1	11586	492	1
1	11688	496	1
1	11739	500	1
1	11844	504	1
1	11949	508	1
1	12055	512	1
1	12159	516	1
1	12210	520	1
1	12314	524	1
1	12419	528	1
1	12525	532	1
1	12629	536	1
1	12680	540	1
1	12783	544	1
1	12887	548	1
1	12991	552	1
1	13094	556	1
1	13145	560	1
1	13246	564	1
1	13348	568	1
1	13450	572	1
1	13553	576	1
1	13604	580	1
1	13709	584	1
1	13816	588	1
1	13918	592	1
1	14024	596	1
1	14075	600	1
1	14178	604	1
1	14283	608	1
1	14388	612	1
1	14492	616	1
1	14543	620	1
1	14648	624	1
1	14754	628	1
1	14856	632	1
1	14961	636	1
1	15012	640	1
1	15118	644	1
1	15223	648	1
1	15326	652	1
1	15429	656	1
1	15480	660	1
1	15584	664	1
1	15690	668	1
1	15791	672	1
1	15893	676	1
1	15944	680	1
1	16045	684	1
1	16150	688	1
1	16256	692	1
1	16359	696	1
1	16410	700	1
1	16513	704	1
1	16621	708	1
1	16725	712	1
1	16827	716	1
1	16878	720	1
1	16980	724	1
1	17086	728	1
1	17192	732	1
1	17296	736	1
1	17347	740	1
1	17451	744	1
1	17552	748	1
1	17656	752	1
1	17761	756	1
1	17812	760	1
1	17918	764	1
1	18021	768	1
1	18128	772	1
1	18235	776	1
1	18286	780	1
1	18388	784	1
1	18492	788	1
1	18595	792	1
1	18701	796	1
1	18752	800	1
1	18857	804	1
1	18963	808	1
1	19068	812	1
1	19171	816	1
1	19222	820	1
1	19327	824	1
1	19431	828	1
1	19538	832	1
1	19641	836	1
1	19692	840	1
1	19800	844	1
1	19903	848	1
1	20011	852	1
1	20114	856	1
1	20165	860	1
1	20268	864	1
1	20370	868	1
1	20475	872	1
1	20579	876	1
1	20630	880	1
1	20735	884	1
1	20838	888	1
1	20945	892	1
1	21049	896	1
1	21100	900	1
1	21205	904	1
1	21309	908	1
1	21412	912	1
1	21523	916	1
1	21574	920	1
1	21674	924	1
1	21776	928	1
1	21882	932	1
1	21987	936	1
1	22038	940	1
1	22141	944	1
1	22245	948	1
1	22349	952	1
1	22453	956	1
1	22504	960	1
1	22610	964	1
1	22715	968	1
1	22818	972	1
1	22924	976	1
1	22975	980	1
1	23076	984	1
1	23181	988	1
1	23285	992	1
1	23390	996	1
1	23441	1000	1
1	23550	1004	1
1	23654	1008	1
1	23756	1012	1
1	23862	1016	1
1	23913	1020	1
1	24015	1024	1
1	24116	1028	1
1	24221	1032	1
1	24327	1036	1
1	24378	1040	1
1	24481	1044	1
1	24588	1048	1
1	24690	1052	1
1	24795	1056	1
1	24846	1060	1
1	24948	1064	1
1	25055	1068	1
1	25158	1072	1
1	25264	1076	1
1	25315	1080	1
1	25419	1084	1
1	25521	1088	1
1	25623	1092	1
1	25727	1096	1
1	25778	1100	1
1	25884	1104	1
1	25987	1108	1
1	26089	1112	1
1	26192	1116	1
1	26243	1120	1
1	26346	1124	1
1	26451	1128	1
1	26552	1132	1
1	26655	1136	1
1	26706	1140	1
1	26810	1144	1
1	26913	1148	1
1	27019	1152	1
1	27124	1156	1
1	27175	1160	1
1	27276	1164	1
1	27379	1168	1
1	27486	1172	1
1	27590	1176	1
1	27641	1180	1
1	27746	1184	1
1	27849	1188	1
1	27955	1192	1
1	28057	1196	1
1	28108	1200	1
1	28214	1204	1
1	28317	1208	1
1	28424	1212	1
1	28526	1216	1
1	28577	1220	1
1	28680	1224	1
1	28781	1228	1
1	28886	1232	1
1	28989	1236	1
1	29040	1240	1
1	29144	1244	1
1	29248	1248	1
1	29352	1252	1
1	29458	1256	1
1	29509	1260	1
1	29610	1264	1
1	29712	1268	1
1	29816	1272	1
1	29919	1276	1
1	29970	1280	1
1	30074	1284	1
1	30179	1288	1
1	30284	1292	1
1	30387	1296	1
1	30438	1300	1
1	30542	1304	1
1	30647	1308	1
1	30754	1312	1
1	30856	1316	1
1	30907	1320	1
1	31011	1324	1
1	31117	1328	1
1	31222	1332	1
1	31324	1336	1
1	31375	1340	1
1	31479	1344	1
1	31584	1348	1
1	31689	1352	1
1	31791	1356	1
1	31842	1360	1
1	31948	1364	1
1	32052	1368	1
1	32153	1372	1
1	32254	1376	1
1	32305	1380	1
1	32407	1384	1
1	32509	1388	1
1	32613	1392	1
1	32715	1396	1
1	32766	1400	1
1	32868	1404	1
1	32972	1408	1
1	33076	1412	1
1	33181	1416	1
1	33232	1420	1
1	33334	1424	1
1	33438	1428	1
1	33540	1432	1
1	33645	1436	1
1	33696	1440	1
1	33800	1444	1
1	33902	1448	1
1	34006	1452	1
1	34111	1456	1
1	34162	1460	1
1	34265	1464	1
1	34370	1468	1
1	34477	1472	1
1	34582	1476	1
1	34633	1480	1
1	34735	1484	1
1	34841	1488	1
1	34944	1492	1
1	35051	1496	1
1	35102	1500	1
1	35203	1504	1
1	35308	1508	1
1	35409	1512	1
1	35513	1516	1
1	35564	1520	1
1	35666	1524	1
1	35769	1528	1
1	35872	1532	1
1	35979	1536	1
1	36030	1540	1
1	36132	1544	1
1	36234	1548	1
1	36339	1552	1
1	36444	1556	1
1	36495	1560	1
1	36597	1564	1
1	36702	1568	1
1	36806	1572	1
1	36908	1576	1
1	36959	1580	1
1	37060	1584	1
1	37164	1588	1
1	37266	1592	1
1	37370	1596	1
1	37421	1600	1
1	37528	1604	1
1	37630	1608	1
1	37735	1612	1
1	37841	1616	1
1	37892	1620	1
1	37998	1624	1
1	38100	1628	1
1	38205	1632	1
1	38307	1636	1
1	38358	1640	1
1	38463	1644	1
1	38565	1648	1
1	38671	1652	1
1	38774	1656	1
1	38825	1660	1
1	38927	1664	1
1	39034	1668	1
1	39135	1672	1
1	39236	1676	1
1	39287	1680	1
1	39388	1684	1
1	39492	1688	1
1	39597	1692	1
1	39702	1696	1
1	39753	1700	1
1	39855	1704	1
1	39960	1708	1
1	40064	1712	1
1	40166	1716	1
1	40217	1720	1
1	40323	1724	1
1	40427	1728	1
1	40529	1732	1
1	40636	1736	1
1	40687	1740	1
1	40789	1744	1
1	40891	1748	1
1	40996	1752	1
1	41099	1756	1
1	41150	1760	1
1	41253	1764	1
1	41358	1768	1
1	41462	1772	1
1	41563	1776	1
1	41614	1780	1
1	41715	1784	1
1	41817	1788	1
1	41921	1792	1
1	42026	1796	1
1	42077	1800	1
1	42180	1804	1
1	42281	1808	1
1	42382	1812	1
1	42488	1816	1
1	42539	1820	1
1	42640	1824	1
1	42745	1828	1
1	42849	1832	1
1	42950	1836	1
1	43001	1840	1
1	43103	1844	1
1	43209	1848	1
1	43312	1852	1
1	43417	1856	1
1	43468	1860	1
1	43573	1864	1
1	43676	1868	1
1	43784	1872	1
1	43890	1876	1
1	43941	1880	1
1	44042	1884	1
1	44146	1888	1
1	44249	1892	1
1	44354	1896	1
1	44405	1900	1
1	44508	1904	1
1	44610	1908	1
1	44714	1912	1
1	44823	1916	1
1	44874	1920	1
1	44975	1924	1
1	45079	1928	1
1	45186	1932	1
1	45288	1936	1
1	45339	1940	1
1	45444	1944	1
1	45545	1948	1
1	45647	1952	1
1	45750	1956	1
1	45801	1960	1
1	45907	1964	1
1	46011	1968	1
1	46112	1972	1
1	46214	1976	1
1	46265	1980	1
1	46368	1984	1
1	46472	1988	1
1	46575	1992	1
1	46678	1996	1
1	46729	2000	1
1	46833	2004	1
1	46937	2008	1
1	47046	2012	1
1	47150	2016	1
1	47201	2020	1
1	47307	2024	1
1	47410	2028	1
1	47515	2032	1
1	47620	2036	1
1	47671	2040	1
1	47772	2044	1
1	47877	2048	1
1	47982	2052	1
1	48088	2056	1
1	48139	2060	1
1	48244	2064	1
1	48346	2068	1
1	48450	2072	1
1	48556	2076	1
1	48607	2080	1
1	48715	2084	1
1	48817	2088	1
1	48922	2092	1
1	49026	2096	1
1	49077	2100	1
1	49181	2104	1
1	49285	2108	1
1	49387	2112	1
1	49492	2116	1
1	49543	2120	1
1	49649	2124	1
1	49752	2128	1
1	49859	2132	1
1	49961	2136	1
1	50012	2140	1
1	50114	2144	1
1	50220	2148	1
1	50324	2152	1
1	50429	2156	1
1	50480	2160	1
1	50584	2164	1
1	50688	2168	1
1	50796	2172	1
1	50897	2176	1
1	50948	2180	1
1	51050	2184	1
1	51154	2188	1
1	51256	2192	1
1	51361	2196	1
1	51412	2200	1
1	51513	2204	1
1	51616	2208	1
1	51719	2212	1
1	51823	2216	1
1	51874	2220	1
1	51976	2224	1
1	52078	2228	1
1	52183	2232	1
1	52285	2236	1
1	52336	2240	1
1	52440	2244	1
1	52546	2248	1
1	52647	2252	1
1	52749	2256	1
1	52800	2260	1
1	52908	2264	1
1	53011	2268	1
1	53113	2272	1
1	53219	2276	1
1	53270	2280	1
1	53370	2284	1
1	53473	2288	1
1	53575	2292	1
1	53678	2296	1
1	53729	2300	1
1	53833	2304	1
1	53939	2308	1
1	54043	2312	1
1	54149	2316	1
1	54200	2320	1
1	54304	2324	1
1	54408	2328	1
1	54514	2332	1
1	54617	2336	1
1	54668	2340	1
1	54770	2344	1
1	54871	2348	1
1	54975	2352	1
1	55080	2356	1
1	55131	2360	1
1	55233	2364	1
1	55335	2368	1
1	55439	2372	1
1	55545	2376	1
1	55596	2380	1
1	55700	2384	1
1	55805	2388	1
1	55908	2392	1
1	56011	2396	1
1	56062	2400	1
1	56165	2404	1
1	56269	2408	1
1	56372	2412	1
1	56478	2416	1
1	56529	2420	1
1	56630	2424	1
1	56735	2428	1
1	56837	2432	1
1	56944	2436	1
1	56995	2440	1
1	57096	2444	1
1	57199	2448	1
1	57307	2452	1
1	57409	2456	1
1	57460	2460	1
1	57562	2464	1
1	57665	2468	1
1	57771	2472	1
1	57872	2476	1
1	57923	2480	1
1	58024	2484	1
1	58127	2488	1
1	58233	2492	1
1	58334	2496	1
1	58385	2500	1
1	58485	2504	1
1	58587	2508	1
1	58689	2512	1
1	58792	2516	1
1	58843	2520	1
1	58944	2524	1
1	59047	2528	1
1	59151	2532	1
1	59252	2536	1
1	59303	2540	1
1	59403	2544	1
1	59505	2548	1
1	59609	2552	1
1	59713	2556	1
1	59764	2560	1
1	59866	2564	1
1	59970	2568	1
1	60075	2572	1
1	60181	2576	1
1	60232	2580	1
1	60334	2584	1
1	60439	2588	1
1	60540	2592	1
1	60644	2596	1
1	60695	2600	1
1	60799	2604	1
1	60905	2608	1
1	61007	2612	1
1	61112	2616	1
1	61163	2620	1
1	61265	2624	1
1	61370	2628	1
1	61473	2632	1
1	61578	2636	1
1	61629	2640	1
1	61731	2644	1
1	61836	2648	1
1	61940	2652	1
1	62042	2656	1
1	62093	2660	1
1	62196	2664	1
1	62298	2668	1
1	62404	2672	1
1	62507	2676	1
1	62558	2680	1
1	62664	2684	1
1	62767	2688	1
1	62868	2692	1
1	62970	2696	1
1	63021	2700	1
1	63123	2704	1
1	63229	2708	1
1	63335	2712	1
1	63437	2716	1
1	63488	2720	1
1	63591	2724	1
1	63697	2728	1
1	63803	2732	1
1	63908	2736	1
1	63959	2740	1
1	64061	2744	1
1	64167	2748	1
1	64271	2752	1
1	64378	2756	1
1	64429	2760	1
1	64529	2764	1
1	64630	2768	1
1	64734	2772	1
1	64838	2776	1
1	64889	2780	1
1	64992	2784	1
1	65097	2788	1
1	65203	2792	1
1	65307	2796	1
1	65358	2800	1
1	65463	2804	1
1	65567	2808	1
1	65673	2812	1
1	65776	2816	1
1	65827	2820	1
1	65930	2824	1
1	66035	2828	1
1	66139	2832	1
1	66243	2836	1
1	66294	2840	1
1	66399	2844	1
1	66501	2848	1
1	66604	2852	1
1	66709	2856	1
1	66760	2860	1
1	66863	2864	1
1	66966	2868	1
1	67071	2872	1
1	67178	2876	1
1	67229	2880	1
1	67332	2884	1
1	67439	2888	1
1	67542	2892	1
1	67648	2896	1
1	67699	2900	1
1	67801	2904	1
1	67904	2908	1
1	68011	2912	1
1	68115	2916	1
1	68166	2920	1
1	68268	2924	1
1	68373	2928	1
1	68481	2932	1
1	68583	2936	1
1	68634	2940	1
1	68735	2944	1
1	68839	2948	1
1	68944	2952	1
1	69047	2956	1
1	69098	2960	1
1	69200	2964	1
1	69304	2968	1
1	69406	2972	1
1	69511	2976	1
1	69562	2980	1
1	69667	2984	1
1	69769	2988	1
1	69873	2992	1
1	69981	2996	1
1	70032	3000	1
1	70135	3004	1
1	70236	3008	1
1	70339	3012	1
1	70442	3016	1
1	70493	3020	1
1	70599	3024	1
1	70703	3028	1
1	70806	3032	1
1	70908	3036	1
1	70959	3040	1
1	71063	3044	1
1	71169	3048	1
1	71272	3052	1
1	71376	3056	1
1	71427	3060	1
1	71528	3064	1
1	71634	3068	1
1	71737	3072	1
1	71840	3076	1
1	71891	3080	1
1	71993	3084	1
1	72097	3088	1
1	72201	3092	1
1	72302	3096	1
1	72353	3100	1
1	72455	3104	1
1	72556	3108	1
1	72660	3112	1
1	72765	3116	1
1	72816	3120	1
1	72918	3124	1
1	73022	3128	1
1	73128	3132	1
1	73234	3136	1
1	73285	3140	1
1	73385	3144	1
1	73487	3148	1
1	73591	3152	1
1	73697	3156	1
1	73748	3160	1
1	73850	3164	1
1	73955	3168	1
1	74058	3172	1
1	74163	3176	1
1	74214	3180	1
1	74317	3184	1
1	74421	3188	1
1	74524	3192	1
1	74631	3196	1
1	74682	3200	1
1	74786	3204	1
1	74891	3208	1
1	74997	3212	1
1	75101	3216	1
1	75152	3220	1
1	75256	3224	1
1	75360	3228	1
1	75466	3232	1
1	75571	3236	1
1	75622	3240	1
1	75728	3244	1
1	75831	3248	1
1	75932	3252	1
1	76034	3256	1
1	76085	3260	1
1	76188	3264	1
1	76289	3268	1
1	76391	3272	1
1	76497	3276	1
1	76548	3280	1
1	76648	3284	1
1	76750	3288	1
1	76856	3292	1
1	76960	3296	1
1	77011	3300	1
1	77115	3304	1
1	77223	3308	1
1	77327	3312	1
1	77431	3316	1
1	77482	3320	1
1	77583	3324	1
1	77687	3328	1
1	77791	3332	1
1	77895	3336	1
1	77946	3340	1
1	78047	3344	1
1	78152	3348	1
1	78255	3352	1
1	78359	3356	1
1	78410	3360	1
1	78517	3364	1
1	78621	3368	1
1	78724	3372	1
1	78828	3376	1
1	78879	3380	1
1	78985	3384	1
1	79089	3388	1
1	79194	3392	1
1	79297	3396	1
1	79348	3400	1
1	79452	3404	1
1	79556	3408	1
1	79662	3412	1
1	79768	3416	1
1	79819	3420	1
1	79924	3424	1
1	80029	3428	1
1	80132	3432	1
1	80237	3436	1
1	80288	3440	1
1	80390	3444	1
1	80495	3448	1
1	80599	3452	1
1	80703	3456	1
1	80754	3460	1
1	80855	3464	1
1	80959	3468	1
1	81061	3472	1
1	81165	3476	1
1	81216	3480	1
1	81320	3484	1
1	81423	3488	1
1	81531	3492	1
1	81633	3496	1
1	81684	3500	1
1	81785	3504	1
1	81887	3508	1
1	81992	3512	1
1	82096	3516	1
1	82147	3520	1
1	82250	3524	1
1	82352	3528	1
1	82456	3532	1
1	82562	3536	1
1	82613	3540	1
1	82715	3544	1
1	82820	3548	1
1	82929	3552	1
1	83032	3556	1
1	83083	3560	1
1	83185	3564	1
1	83291	3568	1
1	83395	3572	1
1	83498	3576	1
1	83549	3580	1
1	83651	3584	1
1	83755	3588	1
1	83858	3592	1
1	83966	3596	1
1	84017	3600	1
2	3	4	1
2	145	8	1
2	253	12	1
2	356	16	1
2	407	20	1
2	524	24	1
2	632	28	1
2	740	32	1
2	856	36	1
2	907	40	1
2	1019	44	1
2	1123	48	1
2	1229	52	1
2	1337	56	1
2	1388	60	1
2	1501	64	1
2	1609	68	1
2	1716	72	1
2	1826	76	1
2	1877	80	1
2	1983	84	1
2	2087	88	1
2	2193	92	1
2	2299	96	1
2	2350	100	1
2	2453	104	1
2	2560	108	1
2	2667	112	1
2	2776	116	1
2	2827	120	1
2	2931	124	1
2	3038	128	1
2	3145	132	1
2	3252	136	1
2	3303	140	1
2	3409	144	1
2	3513	148	1
2	3617	152	1
2	3723	156	1
2	3774	160	1
2	3880	164	1
2	3988	168	1
2	4089	172	1
2	4195	176	1
2	4246	180	1
2	4351	184	1
2	4454	188	1
2	4559	192	1
2	4666	196	1
2	4717	200	1
2	4822	204	1
2	4927	208	1
2	5033	212	1
2	5138	216	1
2	5189	220	1
2	5292	224	1
2	5401	228	1
2	5504	232	1
2	5606	236	1
2	5657	240	1
2	5760	244	1
2	5864	248	1
2	5973	252	1
2	6079	256	1
2	6130	260	1
2	6233	264	1
2	6339	268	1
2	6443	272	1
2	6548	276	1
2	6599	280	1
2	6705	284	1
2	6808	288	1
2	6913	292	1
2	7021	296	1
2	7072	300	1
2	7175	304	1
2	7279	308	1
2	7385	312	1
2	7490	316	1
2	7541	320	1
2	7646	324	1
2	7747	328	1
2	7849	332	1
2	7955	336	1
2	8006	340	1
2	8108	344	1
2	8210	348	1
2	8315	352	1
2	8417	356	1
2	8468	360	1
2	8571	364	1
2	8679	368	1
2	8783	372	1
2	8887	376	1
2	8938	380	1
2	9043	384	1
2	9148	388	1
2	9255	392	1
2	9356	396	1
2	9407	400	1
2	9508	404	1
2	9613	408	1
2	9716	412	1
2	9823	416	1
2	9874	420	1
2	9976	424	1
2	10082	428	1
2	10186	432	1
2	10289	436	1
2	10340	440	1
2	10444	444	1
2	10549	448	1
2	10654	452	1
2	10759	456	1
2	10810	460	1
2	10914	464	1
2	11020	468	1
2	11122	472	1
2	11225	476	1
2	11276	480	1
2	11379	484	1
2	11486	488	1
2	11587	492	1
2	11689	496	1
2	11740	500	1
2	11845	504	1
2	11950	508	1
2	12056	512	1
2	12160	516	1
2	12211	520	1
2	12315	524	1
2	12420	528	1
2	12526	532	1
2	12630	536	1
2	12681	540	1
2	12784	544	1
2	12888	548	1
2	12992	552	1
2	13095	556	1
2	13146	560	1
2	13247	564	1
2	13349	568	1
2	13451	572	1
2	13554	576	1
2	13605	580	1
2	13710	584	1
2	13817	588	1
2	13919	592	1
2	14025	596	1
2	14076	600	1
2	14179	604	1
2	14284	608	1
2	14389	612	1
2	14493	616	1
2	14544	620	1
2	14649	624	1
2	14755	628	1
2	14857	632	1
2	14962	636	1
2	15013	640	1
2	15119	644	1
2	15224	648	1
2	15327	652	1
2	15430	656	1
2	15481	660	1
2	15585	664	1
2	15691	668	1
2	15792	672	1
2	15894	676	1
2	15945	680	1
2	16046	684	1
2	16151	688	1
2	16257	692	1
2	16360	696	1
2	16411	700	1
2	16514	704	1
2	16622	708	1
2	16726	712	1
2	16828	716	1
2	16879	720	1
2	16981	724	1
2	17087	728	1
2	17193	732	1
2	17297	736	1
2	17348	740	1
2	17452	744	1
2	17553	748	1
2	17657	752	1
2	17762	756	1
2	17813	760	1
2	17919	764	1
2	18022	768	1
2	18129	772	1
2	18236	776	1
2	18287	780	1
2	18389	784	1
2	18493	788	1
2	18596	792	1
2	18702	796	1
2	18753	800	1
2	18858	804	1
2	18964	808	1
2	19069	812	1
2	19172	816	1
2	19223	820	1
2	19328	824	1
2	19432	828	1
2	19539	832	1
2	19642	836	1
2	19693	840	1
2	19801	844	1
2	19904	848	1
2	20012	852	1
2	20115	856	1
2	20166	860	1
2	20269	864	1
2	20371	868	1
2	20476	872	1
2	20580	876	1
2	20631	880	1
2	20736	884	1
2	20839	888	1
2	20946	892	1
2	21050	896	1
2	21101	900	1
2	21206	904	1
2	21310	908	1
2	21413	912	1
2	21524	916	1
2	21575	920	1
2	21675	924	1
2	21777	928	1
2	21883	932	1
2	21988	936	1
2	22039	940	1
2	22142	944	1
2	22246	948	1
2	22350	952	1
2	22454	956	1
2	22505	960	1
2	22611	964	1
2	22716	968	1
2	22819	972	1
2	22925	976	1
2	22976	980	1
2	23077	984	1
2	23182	988	1
2	23286	992	1
2	23391	996	1
2	23442	1000	1
2	23551	1004	1
2	23655	1008	1
2	23757	1012	1
2	23863	1016	1
2	23914	1020	1
2	24016	1024	1
2	24117	1028	1
2	24222	1032	1
2	24328	1036	1
2	24379	1040	1
2	24482	1044	1
2	24589	1048	1
2	24691	1052	1
2	24796	1056	1
2	24847	1060	1
2	24949	1064	1
2	25056	1068	1
2	25159	1072	1
2	25265	1076	1
2	25316	1080	1
2	25420	1084	1
2	25522	1088	1
2	25624	1092	1
2	25728	1096	1
2	25779	1100	1
2	25885	1104	1
2	25988	1108	1
2	26090	1112	1
2	26193	1116	1
2	26244	1120	1
2	26347	1124	1
2	26452	1128	1
2	26553	1132	1
2	26656	1136	1
2	26707	1140	1
2	26811	1144	1
2	26914	1148	1
2	27020	1152	1
2	27125	1156	1
2	27176	1160	1
2	27277	1164	1
2	27380	1168	1
2	27487	1172	1
2	27591	1176	1
2	27642	1180	1
2	27747	1184	1
2	27850	1188	1
2	27956	1192	1
2	28058	1196	1
2	28109	1200	1
2	28215	1204	1
2	28318	1208	1
2	28425	1212	1
2	28527	1216	1
2	28578	1220	1
2	28681	1224	1
2	28782	1228	1
2	28887	1232	1
2	28990	1236	1
2	29041	1240	1
2	29145	1244	1
2	29249	1248	1
2	29353	1252	1
2	29459	1256	1
2	29510	1260	1
2	29611	1264	1
2	29713	1268	1
2	29817	1272	1
2	29920	1276	1
2	29971	1280	1
2	30075	1284	1
2	30180	1288	1
2	30285	1292	1
2	30388	1296	1
2	30439	1300	1
2	30543	1304	1
2	30648	1308	1
2	30755	1312	1
2	30857	1316	1
2	30908	1320	1
2	31012	1324	1
2	31118	1328	1
2	31223	1332	1
2	31325	1336	1
2	31376	1340	1
2	31480	1344	1
2	31585	1348	1
2	31690	1352	1
2	31792	1356	1
2	31843	1360	1
2	31949	1364	1
2	32053	1368	1
2	32154	1372	1
2	32255	1376	1
2	32306	1380	1
2	32408	1384	1
2	32510	1388	1
2	32614	1392	1
2	32716	1396	1
2	32767	1400	1
2	32869	1404	1
2	32973	1408	1
2	33077	1412	1
2	33182	1416	1
2	33233	1420	1
2	33335	1424	1
2	33439	1428	1
2	33541	1432	1
2	33646	1436	1
2	33697	1440	1
2	33801	1444	1
2	33903	1448	1
2	34007	1452	1
2	34112	1456	1
2	34163	1460	1
2	34266	1464	1
2	34371	1468	1
2	34478	1472	1
2	34583	1476	1
2	34634	1480	1
2	34736	1484	1
2	34842	1488	1
2	34945	1492	1
2	35052	1496	1
2	35103	1500	1
2	35204	1504	1
2	35309	1508	1
2	35410	1512	1
2	35514	1516	1
2	35565	1520	1
2	35667	1524	1
2	35770	1528	1
2	35873	1532	1
2	35980	1536	1
2	36031	1540	1
2	36133	1544	1
2	36235	1548	1
2	36340	1552	1
2	36445	1556	1
2	36496	1560	1
2	36598	1564	1
2	36703	1568	1
2	36807	1572	1
2	36909	1576	1
2	36960	1580	1
2	37061	1584	1
2	37165	1588	1
2	37267	1592	1
2	37371	1596	1
2	37422	1600	1
2	37529	1604	1
2	37631	1608	1
2	37736	1612	1
2	37842	1616	1
2	37893	1620	1
2	37999	1624	1
2	38101	1628	1
2	38206	1632	1
2	38308	1636	1
2	38359	1640	1
2	38464	1644	1
2	38566	1648	1
2	38672	1652	1
2	38775	1656	1
2	38826	1660	1
2	38928	1664	1
2	39035	1668	1
2	39136	1672	1
2	39237	1676	1
2	39288	1680	1
2	39389	1684	1
2	39493	1688	1
2	39598	1692	1
2	39703	1696	1
2	39754	1700	1
2	39856	1704	1
2	39961	1708	1
2	40065	1712	1
2	40167	1716	1
2	40218	1720	1
2	40324	1724	1
2	40428	1728	1
2	40530	1732	1
2	40637	1736	1
2	40688	1740	1
2	40790	1744	1
2	40892	1748	1
2	40997	1752	1
2	41100	1756	1
2	41151	1760	1
2	41254	1764	1
2	41359	1768	1
2	41463	1772	1
2	41564	1776	1
2	41615	1780	1
2	41716	1784	1
2	41818	1788	1
2	41922	1792	1
2	42027	1796	1
2	42078	1800	1
2	42181	1804	1
2	42282	1808	1
2	42383	1812	1
2	42489	1816	1
2	42540	1820	1
2	42641	1824	1
2	42746	1828	1
2	42850	1832	1
2	42951	1836	1
2	43002	1840	1
2	43104	1844	1
2	43210	1848	1
2	43313	1852	1
2	43418	1856	1
2	43469	1860	1
2	43574	1864	1
2	43677	1868	1
2	43785	1872	1
2	43891	1876	1
2	43942	1880	1
2	44043	1884	1
2	44147	1888	1
2	44250	1892	1
2	44355	1896	1
2	44406	1900	1
2	44509	1904	1
2	44611	1908	1
2	44715	1912	1
2	44824	1916	1
2	44875	1920	1
2	44976	1924	1
2	45080	1928	1
2	45187	1932	1
2	45289	1936	1
2	45340	1940	1
2	45445	1944	1
2	45546	1948	1
2	45648	1952	1
2	45751	1956	1
2	45802	1960	1
2	45908	1964	1
2	46012	1968	1
2	46113	1972	1
2	46215	1976	1
2	46266	1980	1
2	46369	1984	1
2	46473	1988	1
2	46576	1992	1
2	46679	1996	1
2	46730	2000	1
2	46834	2004	1
2	46938	2008	1
2	47047	2012	1
2	47151	2016	1
2	47202	2020	1
2	47308	2024	1
2	47411	2028	1
2	47516	2032	1
2	47621	2036	1
2	47672	2040	1
2	47773	2044	1
2	47878	2048	1
2	47983	2052	1
2	48089	2056	1
2	48140	2060	1
2	48245	2064	1
2	48347	2068	1
2	48451	2072	1
2	48557	2076	1
2	48608	2080	1
2	48716	2084	1
2	48818	2088	1
2	48923	2092	1
2	49027	2096	1
2	49078	2100	1
2	49182	2104	1
2	49286	2108	1
2	49388	2112	1
2	49493	2116	1
2	49544	2120	1
2	49650	2124	1
2	49753	2128	1
2	49860	2132	1
2	49962	2136	1
2	50013	2140	1
2	50115	2144	1
2	50221	2148	1
2	50325	2152	1
2	50430	2156	1
2	50481	2160	1
2	50585	2164	1
2	50689	2168	1
2	50797	2172	1
2	50898	2176	1
2	50949	2180	1
2	51051	2184	1
2	51155	2188	1
2	51257	2192	1
2	51362	2196	1
2	51413	2200	1
2	51514	2204	1
2	51617	2208	1
2	51720	2212	1
2	51824	2216	1
2	51875	2220	1
2	51977	2224	1
2	52079	2228	1
2	52184	2232	1
2	52286	2236	1
2	52337	2240	1
2	52441	2244	1
2	52547	2248	1
2	52648	2252	1
2	52750	2256	1
2	52801	2260	1
2	52909	2264	1
2	53012	2268	1
2	53114	2272	1
2	53220	2276	1
2	53271	2280	1
2	53371	2284	1
2	53474	2288	1
2	53576	2292	1
2	53679	2296	1
2	53730	2300	1
2	53834	2304	1
2	53940	2308	1
2	54044	2312	1
2	54150	2316	1
2	54201	2320	1
2	54305	2324	1
2	54409	2328	1
2	54515	2332	1
2	54618	2336	1
2	54669	2340	1
2	54771	2344	1
2	54872	2348	1
2	54976	2352	1
2	55081	2356	1
2	55132	2360	1
2	55234	2364	1
2	55336	2368	1
2	55440	2372	1
2	55546	2376	1
2	55597	2380	1
2	55701	2384	1
2	55806	2388	1
2	55909	2392	1
2	56012	2396	1
2	56063	2400	1
2	56166	2404	1
2	56270	2408	1
2	56373	2412	1
2	56479	2416	1
2	56530	2420	1
2	56631	2424	1
2	56736	2428	1
2	56838	2432	1
2	56945	2436	1
2	56996	2440	1
2	57097	2444	1
2	57200	2448	1
2	57308	2452	1
2	57410	2456	1
2	57461	2460	1
2	57563	2464	1
2	57666	2468	1
2	57772	2472	1
2	57873	2476	1
2	57924	2480	1
2	58025	2484	1
2	58128	2488	1
2	58234	2492	1
2	58335	2496	1
2	58386	2500	1
2	58486	2504	1
2	58588	2508	1
2	58690	2512	1
2	58793	2516	1
2	58844	2520	1
2	58945	2524	1
2	59048	2528	1
2	59152	2532	1
2	59253	2536	1
2	59304	2540	1
2	59404	2544	1
2	59506	2548	1
2	59610	2552	1
2	59714	2556	1
2	59765	2560	1
2	59867	2564	1
2	59971	2568	1
2	60076	2572	1
2	60182	2576	1
2	60233	2580	1
2	60335	2584	1
2	60440	2588	1
2	60541	2592	1
2	60645	2596	1
2	60696	2600	1
2	60800	2604	1
2	60906	2608	1
2	61008	2612	1
2	61113	2616	1
2	61164	2620	1
2	61266	2624	1
2	61371	2628	1
2	61474	2632	1
2	61579	2636	1
2	61630	2640	1
2	61732	2644	1
2	61837	2648	1
2	61941	2652	1
2	62043	2656	1
2	62094	2660	1
2	62197	2664	1
2	62299	2668	1
2	62405	2672	1
2	62508	2676	1
2	62559	2680	1
2	62665	2684	1
2	62768	2688	1
2	62869	2692	1
2	62971	2696	1
2	63022	2700	1
2	63124	2704	1
2	63230	2708	1
2	63336	2712	1
2	63438	2716	1
2	63489	2720	1
2	63592	2724	1
2	63698	2728	1
2	63804	2732	1
2	63909	2736	1
2	63960	2740	1
2	64062	2744	1
2	64168	2748	1
2	64272	2752	1
2	64379	2756	1
2	64430	2760	1
2	64530	2764	1
2	64631	2768	1
2	64735	2772	1
2	64839	2776	1
2	64890	2780	1
2	64993	2784	1
2	65098	2788	1
2	65204	2792	1
2	65308	2796	1
2	65359	2800	1
2	65464	2804	1
2	65568	2808	1
2	65674	2812	1
2	65777	2816	1
2	65828	2820	1
2	65931	2824	1
2	66036	2828	1
2	66140	2832	1
2	66244	2836	1
2	66295	2840	1
2	66400	2844	1
2	66502	2848	1
2	66605	2852	1
2	66710	2856	1
2	66761	2860	1
2	66864	2864	1
2	66967	2868	1
2	67072	2872	1
2	67179	2876	1
2	67230	2880	1
2	67333	2884	1
2	67440	2888	1
2	67543	2892	1
2	67649	2896	1
2	67700	2900	1
2	67802	2904	1
2	67905	2908	1
2	68012	2912	1
2	68116	2916	1
2	68167	2920	1
2	68269	2924	1
2	68374	2928	1
2	68482	2932	1
2	68584	2936	1
2	68635	2940	1
2	68736	2944	1
2	68840	2948	1
2	68945	2952	1
2	69048	2956	1
2	69099	2960	1
2	69201	2964	1
2	69305	2968	1
2	69407	2972	1
2	69512	2976	1
2	69563	2980	1
2	69668	2984	1
2	69770	2988	1
2	69874	2992	1
2	69982	2996	1
2	70033	3000	1
2	70136	3004	1
2	70237	3008	1
2	70340	3012	1
2	70443	3016	1
2	70494	3020	1
2	70600	3024	1
2	70704	3028	1
2	70807	3032	1
2	70909	3036	1
2	70960	3040	1
2	71064	3044	1
2	71170	3048	1
2	71273	3052	1
2	71377	3056	1
2	71428	3060	1
2	71529	3064	1
2	71635	3068	1
2	71738	3072	1
2	71841	3076	1
2	71892	3080	1
2	71994	3084	1
2	72098	3088	1
2	72202	3092	1
2	72303	3096	1
2	72354	3100	1
2	72456	3104	1
2	72557	3108	1
2	72661	3112	1
2	72766	3116	1
2	72817	3120	1
2	72919	3124	1
2	73023	3128	1
2	73129	3132	1
2	73235	3136	1
2	73286	3140	1
2	73386	3144	1
2	73488	3148	1
2	73592	3152	1
2	73698	3156	1
2	73749	3160	1
2	73851	3164	1
2	73956	3168	1
2	74059	3172	1
2	74164	3176	1
2	74215	3180	1
2	74318	3184	1
2	74422	3188	1
2	74525	3192	1
2	74632	3196	1
2	74683	3200	1
2	74787	3204	1
2	74892	3208	1
2	74998	3212	1
2	75102	3216	1
2	75153	3220	1
2	75257	3224	1
2	75361	3228	1
2	75467	3232	1
2	75572	3236	1
2	75623	3240	1
2	75729	3244	1
2	75832	3248	1
2	75933	3252	1
2	76035	3256	1
2	76086	3260	1
2	76189	3264	1
2	76290	3268	1
2	76392	3272	1
2	76498	3276	1
2	76549	3280	1
2	76649	3284	1
2	76751	3288	1
2	76857	3292	1
2	76961	3296	1
2	77012	3300	1
2	77116	3304	1
2	77224	3308	1
2	77328	3312	1
2	77432	3316	1
2	77483	3320	1
2	77584	3324	1
2	77688	3328	1
2	77792	3332	1
2	77896	3336	1
2	77947	3340	1
2	78048	3344	1
2	78153	3348	1
2	78256	3352	1
2	78360	3356	1
2	78411	3360	1
2	78518	3364	1
2	78622	3368	1
2	78725	3372	1
2	78829	3376	1
2	78880	3380	1
2	78986	3384	1
2	79090	3388	1
2	79195	3392	1
2	79298	3396	1
2	79349	3400	1
2	79453	3404	1
2	79557	3408	1
2	79663	3412	1
2	79769	3416	1
2	79820	3420	1
2	79925	3424	1
2	80030	3428	1
2	80133	3432	1
2	80238	3436	1
2	80289	3440	1
2	80391	3444	1
2	80496	3448	1
2	80600	3452	1
2	80704	3456	1
2	80755	3460	1
2	80856	3464	1
2	80960	3468	1
2	81062	3472	1
2	81166	3476	1
2	81217	3480	1
2	81321	3484	1
2	81424	3488	1
2	81532	3492	1
2	81634	3496	1
2	81685	3500	1
2	81786	3504	1
2	81888	3508	1
2	81993	3512	1
2	82097	3516	1
2	82148	3520	1
2	82251	3524	1
2	82353	3528	1
2	82457	3532	1
2	82563	3536	1
2	82614	3540	1
2	82716	3544	1
2	82821	3548	1
2	82930	3552	1
2	83033	3556	1
2	83084	3560	1
2	83186	3564	1
2	83292	3568	1
2	83396	3572	1
2	83499	3576	1
2	83550	3580	1
2	83652	3584	1
2	83756	3588	1
2	83859	3592	1
2	83967	3596	1
2	84018	3600	1
3	4	4	1
3	146	8	1
3	254	12	1
3	357	16	1
3	408	20	1
3	525	24	1
3	633	28	1
3	741	32	1
3	857	36	1
3	908	40	1
3	1020	44	1
3	1124	48	1
3	1230	52	1
3	1338	56	1
3	1389	60	1
3	1502	64	1
3	1610	68	1
3	1717	72	1
3	1827	76	1
3	1878	80	1
3	1984	84	1
3	2088	88	1
3	2194	92	1
3	2300	96	1
3	2351	100	1
3	2454	104	1
3	2561	108	1
3	2668	112	1
3	2777	116	1
3	2828	120	1
3	2932	124	1
3	3039	128	1
3	3146	132	1
3	3253	136	1
3	3304	140	1
3	3410	144	1
3	3514	148	1
3	3618	152	1
3	3724	156	1
3	3775	160	1
3	3881	164	1
3	3989	168	1
3	4090	172	1
3	4196	176	1
3	4247	180	1
3	4352	184	1
3	4455	188	1
3	4560	192	1
3	4667	196	1
3	4718	200	1
3	4823	204	1
3	4928	208	1
3	5034	212	1
3	5139	216	1
3	5190	220	1
3	5293	224	1
3	5402	228	1
3	5505	232	1
3	5607	236	1
3	5658	240	1
3	5761	244	1
3	5865	248	1
3	5974	252	1
3	6080	256	1
3	6131	260	1
3	6234	264	1
3	6340	268	1
3	6444	272	1
3	6549	276	1
3	6600	280	1
3	6706	284	1
3	6809	288	1
3	6914	292	1
3	7022	296	1
3	7073	300	1
3	7176	304	1
3	7280	308	1
3	7386	312	1
3	7491	316	1
3	7542	320	1
3	7647	324	1
3	7748	328	1
3	7850	332	1
3	7956	336	1
3	8007	340	1
3	8109	344	1
3	8211	348	1
3	8316	352	1
3	8418	356	1
3	8469	360	1
3	8572	364	1
3	8680	368	1
3	8784	372	1
3	8888	376	1
3	8939	380	1
3	9044	384	1
3	9149	388	1
3	9256	392	1
3	9357	396	1
3	9408	400	1
3	9509	404	1
3	9614	408	1
3	9717	412	1
3	9824	416	1
3	9875	420	1
3	9977	424	1
3	10083	428	1
3	10187	432	1
3	10290	436	1
3	10341	440	1
3	10445	444	1
3	10550	448	1
3	10655	452	1
3	10760	456	1
3	10811	460	1
3	10915	464	1
3	11021	468	1
3	11123	472	1
3	11226	476	1
3	11277	480	1
3	11380	484	1
3	11487	488	1
3	11588	492	1
3	11690	496	1
3	11741	500	1
3	11846	504	1
3	11951	508	1
3	12057	512	1
3	12161	516	1
3	12212	520	1
3	12316	524	1
3	12421	528	1
3	12527	532	1
3	12631	536	1
3	12682	540	1
3	12785	544	1
3	12889	548	1
3	12993	552	1
3	13096	556	1
3	13147	560	1
3	13248	564	1
3	13350	568	1
3	13452	572	1
3	13555	576	1
3	13606	580	1
3	13711	584	1
3	13818	588	1
3	13920	592	1
3	14026	596	1
3	14077	600	1
3	14180	604	1
3	14285	608	1
3	14390	612	1
3	14494	616	1
3	14545	620	1
3	14650	624	1
3	14756	628	1
3	14858	632	1
3	14963	636	1
3	15014	640	1
3	15120	644	1
3	15225	648	1
3	15328	652	1
3	15431	656	1
3	15482	660	1
3	15586	664	1
3	15692	668	1
3	15793	672	1
3	15895	676	1
3	15946	680	1
3	16047	684	1
3	16152	688	1
3	16258	692	1
3	16361	696	1
3	16412	700	1
3	16515	704	1
3	16623	708	1
3	16727	712	1
3	16829	716	1
3	16880	720	1
3	16982	724	1
3	17088	728	1
3	17194	732	1
3	17298	736	1
3	17349	740	1
3	17453	744	1
3	17554	748	1
3	17658	752	1
3	17763	756	1
3	17814	760	1
3	17920	764	1
3	18023	768	1
3	18130	772	1
3	18237	776	1
3	18288	780	1
3	18390	784	1
3	18494	788	1
3	18597	792	1
3	18703	796	1
3	18754	800	1
3	18859	804	1
3	18965	808	1
3	19070	812	1
3	19173	816	1
3	19224	820	1
3	19329	824	1
3	19433	828	1
3	19540	832	1
3	19643	836	1
3	19694	840	1
3	19802	844	1
3	19905	848	1
3	20013	852	1
3	20116	856	1
3	20167	860	1
3	20270	864	1
3	20372	868	1
3	20477	872	1
3	20581	876	1
3	20632	880	1
3	20737	884	1
3	20840	888	1
3	20947	892	1
3	21051	896	1
3	21102	900	1
3	21207	904	1
3	21311	908	1
3	21414	912	1
3	21525	916	1
3	21576	920	1
3	21676	924	1
3	21778	928	1
3	21884	932	1
3	21989	936	1
3	22040	940	1
3	22143	944	1
3	22247	948	1
3	22351	952	1
3	22455	956	1
3	22506	960	1
3	22612	964	1
3	22717	968	1
3	22820	972	1
3	22926	976	1
3	22977	980	1
3	23078	984	1
3	23183	988	1
3	23287	992	1
3	23392	996	1
3	23443	1000	1
3	23552	1004	1
3	23656	1008	1
3	23758	1012	1
3	23864	1016	1
3	23915	1020	1
3	24017	1024	1
3	24118	1028	1
3	24223	1032	1
3	24329	1036	1
3	24380	1040	1
3	24483	1044	1
3	24590	1048	1
3	24692	1052	1
3	24797	1056	1
3	24848	1060	1
3	24950	1064	1
3	25057	1068	1
3	25160	1072	1
3	25266	1076	1
3	25317	1080	1
3	25421	1084	1
3	25523	1088	1
3	25625	1092	1
3	25729	1096	1
3	25780	1100	1
3	25886	1104	1
3	25989	1108	1
3	26091	1112	1
3	26194	1116	1
3	26245	1120	1
3	26348	1124	1
3	26453	1128	1
3	26554	1132	1
3	26657	1136	1
3	26708	1140	1
3	26812	1144	1
3	26915	1148	1
3	27021	1152	1
3	27126	1156	1
3	27177	1160	1
3	27278	1164	1
3	27381	1168	1
3	27488	1172	1
3	27592	1176	1
3	27643	1180	1
3	27748	1184	1
3	27851	1188	1
3	27957	1192	1
3	28059	1196	1
3	28110	1200	1
3	28216	1204	1
3	28319	1208	1
3	28426	1212	1
3	28528	1216	1
3	28579	1220	1
3	28682	1224	1
3	28783	1228	1
3	28888	1232	1
3	28991	1236	1
3	29042	1240	1
3	29146	1244	1
3	29250	1248	1
3	29354	1252	1
3	29460	1256	1
3	29511	1260	1
3	29612	1264	1
3	29714	1268	1
3	29818	1272	1
3	29921	1276	1
3	29972	1280	1
3	30076	1284	1
3	30181	1288	1
3	30286	1292	1
3	30389	1296	1
3	30440	1300	1
3	30544	1304	1
3	30649	1308	1
3	30756	1312	1
3	30858	1316	1
3	30909	1320	1
3	31013	1324	1
3	31119	1328	1
3	31224	1332	1
3	31326	1336	1
3	31377	1340	1
3	31481	1344	1
3	31586	1348	1
3	31691	1352	1
3	31793	1356	1
3	31844	1360	1
3	31950	1364	1
3	32054	1368	1
3	32155	1372	1
3	32256	1376	1
3	32307	1380	1
3	32409	1384	1
3	32511	1388	1
3	32615	1392	1
3	32717	1396	1
3	32768	1400	1
3	32870	1404	1
3	32974	1408	1
3	33078	1412	1
3	33183	1416	1
3	33234	1420	1
3	33336	1424	1
3	33440	1428	1
3	33542	1432	1
3	33647	1436	1
3	33698	1440	1
3	33802	1444	1
3	33904	1448	1
3	34008	1452	1
3	34113	1456	1
3	34164	1460	1
3	34267	1464	1
3	34372	1468	1
3	34479	1472	1
3	34584	1476	1
3	34635	1480	1
3	34737	1484	1
3	34843	1488	1
3	34946	1492	1
3	35053	1496	1
3	35104	1500	1
3	35205	1504	1
3	35310	1508	1
3	35411	1512	1
3	35515	1516	1
3	35566	1520	1
3	35668	1524	1
3	35771	1528	1
3	35874	1532	1
3	35981	1536	1
3	36032	1540	1
3	36134	1544	1
3	36236	1548	1
3	36341	1552	1
3	36446	1556	1
3	36497	1560	1
3	36599	1564	1
3	36704	1568	1
3	36808	1572	1
3	36910	1576	1
3	36961	1580	1
3	37062	1584	1
3	37166	1588	1
3	37268	1592	1
3	37372	1596	1
3	37423	1600	1
3	37530	1604	1
3	37632	1608	1
3	37737	1612	1
3	37843	1616	1
3	37894	1620	1
3	38000	1624	1
3	38102	1628	1
3	38207	1632	1
3	38309	1636	1
3	38360	1640	1
3	38465	1644	1
3	38567	1648	1
3	38673	1652	1
3	38776	1656	1
3	38827	1660	1
3	38929	1664	1
3	39036	1668	1
3	39137	1672	1
3	39238	1676	1
3	39289	1680	1
3	39390	1684	1
3	39494	1688	1
3	39599	1692	1
3	39704	1696	1
3	39755	1700	1
3	39857	1704	1
3	39962	1708	1
3	40066	1712	1
3	40168	1716	1
3	40219	1720	1
3	40325	1724	1
3	40429	1728	1
3	40531	1732	1
3	40638	1736	1
3	40689	1740	1
3	40791	1744	1
3	40893	1748	1
3	40998	1752	1
3	41101	1756	1
3	41152	1760	1
3	41255	1764	1
3	41360	1768	1
3	41464	1772	1
3	41565	1776	1
3	41616	1780	1
3	41717	1784	1
3	41819	1788	1
3	41923	1792	1
3	42028	1796	1
3	42079	1800	1
3	42182	1804	1
3	42283	1808	1
3	42384	1812	1
3	42490	1816	1
3	42541	1820	1
3	42642	1824	1
3	42747	1828	1
3	42851	1832	1
3	42952	1836	1
3	43003	1840	1
3	43105	1844	1
3	43211	1848	1
3	43314	1852	1
3	43419	1856	1
3	43470	1860	1
3	43575	1864	1
3	43678	1868	1
3	43786	1872	1
3	43892	1876	1
3	43943	1880	1
3	44044	1884	1
3	44148	1888	1
3	44251	1892	1
3	44356	1896	1
3	44407	1900	1
3	44510	1904	1
3	44612	1908	1
3	44716	1912	1
3	44825	1916	1
3	44876	1920	1
3	44977	1924	1
3	45081	1928	1
3	45188	1932	1
3	45290	1936	1
3	45341	1940	1
3	45446	1944	1
3	45547	1948	1
3	45649	1952	1
3	45752	1956	1
3	45803	1960	1
3	45909	1964	1
3	46013	1968	1
3	46114	1972	1
3	46216	1976	1
3	46267	1980	1
3	46370	1984	1
3	46474	1988	1
3	46577	1992	1
3	46680	1996	1
3	46731	2000	1
3	46835	2004	1
3	46939	2008	1
3	47048	2012	1
3	47152	2016	1
3	47203	2020	1
3	47309	2024	1
3	47412	2028	1
3	47517	2032	1
3	47622	2036	1
3	47673	2040	1
3	47774	2044	1
3	47879	2048	1
3	47984	2052	1
3	48090	2056	1
3	48141	2060	1
3	48246	2064	1
3	48348	2068	1
3	48452	2072	1
3	48558	2076	1
3	48609	2080	1
3	48717	2084	1
3	48819	2088	1
3	48924	2092	1
3	49028	2096	1
3	49079	2100	1
3	49183	2104	1
3	49287	2108	1
3	49389	2112	1
3	49494	2116	1
3	49545	2120	1
3	49651	2124	1
3	49754	2128	1
3	49861	2132	1
3	49963	2136	1
3	50014	2140	1
3	50116	2144	1
3	50222	2148	1
3	50326	2152	1
3	50431	2156	1
3	50482	2160	1
3	50586	2164	1
3	50690	2168	1
3	50798	2172	1
3	50899	2176	1
3	50950	2180	1
3	51052	2184	1
3	51156	2188	1
3	51258	2192	1
3	51363	2196	1
3	51414	2200	1
3	51515	2204	1
3	51618	2208	1
3	51721	2212	1
3	51825	2216	1
3	51876	2220	1
3	51978	2224	1
3	52080	2228	1
3	52185	2232	1
3	52287	2236	1
3	52338	2240	1
3	52442	2244	1
3	52548	2248	1
3	52649	2252	1
3	52751	2256	1
3	52802	2260	1
3	52910	2264	1
3	53013	2268	1
3	53115	2272	1
3	53221	2276	1
3	53272	2280	1
3	53372	2284	1
3	53475	2288	1
3	53577	2292	1
3	53680	2296	1
3	53731	2300	1
3	53835	2304	1
3	53941	2308	1
3	54045	2312	1
3	54151	2316	1
3	54202	2320	1
3	54306	2324	1
3	54410	2328	1
3	54516	2332	1
3	54619	2336	1
3	54670	2340	1
3	54772	2344	1
3	54873	2348	1
3	54977	2352	1
3	55082	2356	1
3	55133	2360	1
3	55235	2364	1
3	55337	2368	1
3	55441	2372	1
3	55547	2376	1
3	55598	2380	1
3	55702	2384	1
3	55807	2388	1
3	55910	2392	1
3	56013	2396	1
3	56064	2400	1
3	56167	2404	1
3	56271	2408	1
3	56374	2412	1
3	56480	2416	1
3	56531	2420	1
3	56632	2424	1
3	56737	2428	1
3	56839	2432	1
3	56946	2436	1
3	56997	2440	1
3	57098	2444	1
3	57201	2448	1
3	57309	2452	1
3	57411	2456	1
3	57462	2460	1
3	57564	2464	1
3	57667	2468	1
3	57773	2472	1
3	57874	2476	1
3	57925	2480	1
3	58026	2484	1
3	58129	2488	1
3	58235	2492	1
3	58336	2496	1
3	58387	2500	1
3	58487	2504	1
3	58589	2508	1
3	58691	2512	1
3	58794	2516	1
3	58845	2520	1
3	58946	2524	1
3	59049	2528	1
3	59153	2532	1
3	59254	2536	1
3	59305	2540	1
3	59405	2544	1
3	59507	2548	1
3	59611	2552	1
3	59715	2556	1
3	59766	2560	1
3	59868	2564	1
3	59972	2568	1
3	60077	2572	1
3	60183	2576	1
3	60234	2580	1
3	60336	2584	1
3	60441	2588	1
3	60542	2592	1
3	60646	2596	1
3	60697	2600	1
3	60801	2604	1
3	60907	2608	1
3	61009	2612	1
3	61114	2616	1
3	61165	2620	1
3	61267	2624	1
3	61372	2628	1
3	61475	2632	1
3	61580	2636	1
3	61631	2640	1
3	61733	2644	1
3	61838	2648	1
3	61942	2652	1
3	62044	2656	1
3	62095	2660	1
3	62198	2664	1
3	62300	2668	1
3	62406	2672	1
3	62509	2676	1
3	62560	2680	1
3	62666	2684	1
3	62769	2688	1
3	62870	2692	1
3	62972	2696	1
3	63023	2700	1
3	63125	2704	1
3	63231	2708	1
3	63337	2712	1
3	63439	2716	1
3	63490	2720	1
3	63593	2724	1
3	63699	2728	1
3	63805	2732	1
3	63910	2736	1
3	63961	2740	1
3	64063	2744	1
3	64169	2748	1
3	64273	2752	1
3	64380	2756	1
3	64431	2760	1
3	64531	2764	1
3	64632	2768	1
3	64736	2772	1
3	64840	2776	1
3	64891	2780	1
3	64994	2784	1
3	65099	2788	1
3	65205	2792	1
3	65309	2796	1
3	65360	2800	1
3	65465	2804	1
3	65569	2808	1
3	65675	2812	1
3	65778	2816	1
3	65829	2820	1
3	65932	2824	1
3	66037	2828	1
3	66141	2832	1
3	66245	2836	1
3	66296	2840	1
3	66401	2844	1
3	66503	2848	1
3	66606	2852	1
3	66711	2856	1
3	66762	2860	1
3	66865	2864	1
3	66968	2868	1
3	67073	2872	1
3	67180	2876	1
3	67231	2880	1
3	67334	2884	1
3	67441	2888	1
3	67544	2892	1
3	67650	2896	1
3	67701	2900	1
3	67803	2904	1
3	67906	2908	1
3	68013	2912	1
3	68117	2916	1
3	68168	2920	1
3	68270	2924	1
3	68375	2928	1
3	68483	2932	1
3	68585	2936	1
3	68636	2940	1
3	68737	2944	1
3	68841	2948	1
3	68946	2952	1
3	69049	2956	1
3	69100	2960	1
3	69202	2964	1
3	69306	2968	1
3	69408	2972	1
3	69513	2976	1
3	69564	2980	1
3	69669	2984	1
3	69771	2988	1
3	69875	2992	1
3	69983	2996	1
3	70034	3000	1
3	70137	3004	1
3	70238	3008	1
3	70341	3012	1
3	70444	3016	1
3	70495	3020	1
3	70601	3024	1
3	70705	3028	1
3	70808	3032	1
3	70910	3036	1
3	70961	3040	1
3	71065	3044	1
3	71171	3048	1
3	71274	3052	1
3	71378	3056	1
3	71429	3060	1
3	71530	3064	1
3	71636	3068	1
3	71739	3072	1
3	71842	3076	1
3	71893	3080	1
3	71995	3084	1
3	72099	3088	1
3	72203	3092	1
3	72304	3096	1
3	72355	3100	1
3	72457	3104	1
3	72558	3108	1
3	72662	3112	1
3	72767	3116	1
3	72818	3120	1
3	72920	3124	1
3	73024	3128	1
3	73130	3132	1
3	73236	3136	1
3	73287	3140	1
3	73387	3144	1
3	73489	3148	1
3	73593	3152	1
3	73699	3156	1
3	73750	3160	1
3	73852	3164	1
3	73957	3168	1
3	74060	3172	1
3	74165	3176	1
3	74216	3180	1
3	74319	3184	1
3	74423	3188	1
3	74526	3192	1
3	74633	3196	1
3	74684	3200	1
3	74788	3204	1
3	74893	3208	1
3	74999	3212	1
3	75103	3216	1
3	75154	3220	1
3	75258	3224	1
3	75362	3228	1
3	75468	3232	1
3	75573	3236	1
3	75624	3240	1
3	75730	3244	1
3	75833	3248	1
3	75934	3252	1
3	76036	3256	1
3	76087	3260	1
3	76190	3264	1
3	76291	3268	1
3	76393	3272	1
3	76499	3276	1
3	76550	3280	1
3	76650	3284	1
3	76752	3288	1
3	76858	3292	1
3	76962	3296	1
3	77013	3300	1
3	77117	3304	1
3	77225	3308	1
3	77329	3312	1
3	77433	3316	1
3	77484	3320	1
3	77585	3324	1
3	77689	3328	1
3	77793	3332	1
3	77897	3336	1
3	77948	3340	1
3	78049	3344	1
3	78154	3348	1
3	78257	3352	1
3	78361	3356	1
3	78412	3360	1
3	78519	3364	1
3	78623	3368	1
3	78726	3372	1
3	78830	3376	1
3	78881	3380	1
3	78987	3384	1
3	79091	3388	1
3	79196	3392	1
3	79299	3396	1
3	79350	3400	1
3	79454	3404	1
3	79558	3408	1
3	79664	3412	1
3	79770	3416	1
3	79821	3420	1
3	79926	3424	1
3	80031	3428	1
3	80134	3432	1
3	80239	3436	1
3	80290	3440	1
3	80392	3444	1
3	80497	3448	1
3	80601	3452	1
3	80705	3456	1
3	80756	3460	1
3	80857	3464	1
3	80961	3468	1
3	81063	3472	1
3	81167	3476	1
3	81218	3480	1
3	81322	3484	1
3	81425	3488	1
3	81533	3492	1
3	81635	3496	1
3	81686	3500	1
3	81787	3504	1
3	81889	3508	1
3	81994	3512	1
3	82098	3516	1
3	82149	3520	1
3	82252	3524	1
3	82354	3528	1
3	82458	3532	1
3	82564	3536	1
3	82615	3540	1
3	82717	3544	1
3	82822	3548	1
3	82931	3552	1
3	83034	3556	1
3	83085	3560	1
3	83187	3564	1
3	83293	3568	1
3	83397	3572	1
3	83500	3576	1
3	83551	3580	1
3	83653	3584	1
3	83757	3588	1
3	83860	3592	1
3	83968	3596	1
3	84019	3600	1
4	5	4	1
4	147	8	1
4	255	12	1
4	358	16	1
4	409	20	1
4	526	24	1
4	634	28	1
4	742	32	1
4	858	36	1
4	909	40	1
4	1021	44	1
4	1125	48	1
4	1231	52	1
4	1339	56	1
4	1390	60	1
4	1503	64	1
4	1611	68	1
4	1718	72	1
4	1828	76	1
4	1879	80	1
4	1985	84	1
4	2089	88	1
4	2195	92	1
4	2301	96	1
4	2352	100	1
4	2455	104	1
4	2562	108	1
4	2669	112	1
4	2778	116	1
4	2829	120	1
4	2933	124	1
4	3040	128	1
4	3147	132	1
4	3254	136	1
4	3305	140	1
4	3411	144	1
4	3515	148	1
4	3619	152	1
4	3725	156	1
4	3776	160	1
4	3882	164	1
4	3990	168	1
4	4091	172	1
4	4197	176	1
4	4248	180	1
4	4353	184	1
4	4456	188	1
4	4561	192	1
4	4668	196	1
4	4719	200	1
4	4824	204	1
4	4929	208	1
4	5035	212	1
4	5140	216	1
4	5191	220	1
4	5294	224	1
4	5403	228	1
4	5506	232	1
4	5608	236	1
4	5659	240	1
4	5762	244	1
4	5866	248	1
4	5975	252	1
4	6081	256	1
4	6132	260	1
4	6235	264	1
4	6341	268	1
4	6445	272	1
4	6550	276	1
4	6601	280	1
4	6707	284	1
4	6810	288	1
4	6915	292	1
4	7023	296	1
4	7074	300	1
4	7177	304	1
4	7281	308	1
4	7387	312	1
4	7492	316	1
4	7543	320	1
4	7648	324	1
4	7749	328	1
4	7851	332	1
4	7957	336	1
4	8008	340	1
4	8110	344	1
4	8212	348	1
4	8317	352	1
4	8419	356	1
4	8470	360	1
4	8573	364	1
4	8681	368	1
4	8785	372	1
4	8889	376	1
4	8940	380	1
4	9045	384	1
4	9150	388	1
4	9257	392	1
4	9358	396	1
4	9409	400	1
4	9510	404	1
4	9615	408	1
4	9718	412	1
4	9825	416	1
4	9876	420	1
4	9978	424	1
4	10084	428	1
4	10188	432	1
4	10291	436	1
4	10342	440	1
4	10446	444	1
4	10551	448	1
4	10656	452	1
4	10761	456	1
4	10812	460	1
4	10916	464	1
4	11022	468	1
4	11124	472	1
4	11227	476	1
4	11278	480	1
4	11381	484	1
4	11488	488	1
4	11589	492	1
4	11691	496	1
4	11742	500	1
4	11847	504	1
4	11952	508	1
4	12058	512	1
4	12162	516	1
4	12213	520	1
4	12317	524	1
4	12422	528	1
4	12528	532	1
4	12632	536	1
4	12683	540	1
4	12786	544	1
4	12890	548	1
4	12994	552	1
4	13097	556	1
4	13148	560	1
4	13249	564	1
4	13351	568	1
4	13453	572	1
4	13556	576	1
4	13607	580	1
4	13712	584	1
4	13819	588	1
4	13921	592	1
4	14027	596	1
4	14078	600	1
4	14181	604	1
4	14286	608	1
4	14391	612	1
4	14495	616	1
4	14546	620	1
4	14651	624	1
4	14757	628	1
4	14859	632	1
4	14964	636	1
4	15015	640	1
4	15121	644	1
4	15226	648	1
4	15329	652	1
4	15432	656	1
4	15483	660	1
4	15587	664	1
4	15693	668	1
4	15794	672	1
4	15896	676	1
4	15947	680	1
4	16048	684	1
4	16153	688	1
4	16259	692	1
4	16362	696	1
4	16413	700	1
4	16516	704	1
4	16624	708	1
4	16728	712	1
4	16830	716	1
4	16881	720	1
4	16983	724	1
4	17089	728	1
4	17195	732	1
4	17299	736	1
4	17350	740	1
4	17454	744	1
4	17555	748	1
4	17659	752	1
4	17764	756	1
4	17815	760	1
4	17921	764	1
4	18024	768	1
4	18131	772	1
4	18238	776	1
4	18289	780	1
4	18391	784	1
4	18495	788	1
4	18598	792	1
4	18704	796	1
4	18755	800	1
4	18860	804	1
4	18966	808	1
4	19071	812	1
4	19174	816	1
4	19225	820	1
4	19330	824	1
4	19434	828	1
4	19541	832	1
4	19644	836	1
4	19695	840	1
4	19803	844	1
4	19906	848	1
4	20014	852	1
4	20117	856	1
4	20168	860	1
4	20271	864	1
4	20373	868	1
4	20478	872	1
4	20582	876	1
4	20633	880	1
4	20738	884	1
4	20841	888	1
4	20948	892	1
4	21052	896	1
4	21103	900	1
4	21208	904	1
4	21312	908	1
4	21415	912	1
4	21526	916	1
4	21577	920	1
4	21677	924	1
4	21779	928	1
4	21885	932	1
4	21990	936	1
4	22041	940	1
4	22144	944	1
4	22248	948	1
4	22352	952	1
4	22456	956	1
4	22507	960	1
4	22613	964	1
4	22718	968	1
4	22821	972	1
4	22927	976	1
4	22978	980	1
4	23079	984	1
4	23184	988	1
4	23288	992	1
4	23393	996	1
4	23444	1000	1
4	23553	1004	1
4	23657	1008	1
4	23759	1012	1
4	23865	1016	1
4	23916	1020	1
4	24018	1024	1
4	24119	1028	1
4	24224	1032	1
4	24330	1036	1
4	24381	1040	1
4	24484	1044	1
4	24591	1048	1
4	24693	1052	1
4	24798	1056	1
4	24849	1060	1
4	24951	1064	1
[...]
139	12367	525	1
139	15994	680	1
139	16462	700	1
139	18072	770	1
140	5239	220	1
140	9095	385	1
140	9198	390	1
140	10965	465	1
140	11431	485	1
140	13762	585	1
140	14231	605	1
140	16777	715	1
140	17031	725	1
140	25211	1075	1
140	42798	1830	1
140	44093	1885	1
140	45026	1925	1
140	45130	1930	1
140	46990	2010	1
140	47098	2015	1
140	49803	2130	1
140	51307	2195	1
140	52129	2230	1
140	55386	2370	1
140	55490	2375	1
140	59556	2550	1
140	60387	2585	1
140	61215	2620	1
140	65620	2810	1
140	67852	2905	1
141	5239	220	216
141	9095	385	377
141	9198	390	378
141	10965	465	449
141	11431	485	465
141	13762	585	361
141	14231	605	217
141	16777	715	323
141	17031	725	257
141	25211	1075	587
141	42798	1830	1242
141	44093	1885	1277
141	45026	1925	1209
141	45130	1930	1202
141	46990	2010	934
141	47098	2015	183
141	49803	2130	242
141	51307	2195	267
141	52129	2230	298
141	55386	2370	358
141	55490	2375	359
141	59556	2550	418
141	60387	2585	389
141	61215	2620	388
141	65620	2810	438
141	67852	2905	529
142	5239	220	1
142	9095	385	1
142	9198	390	1
142	10965	465	1
142	11431	485	1
142	13762	585	1
142	14231	605	1
142	16777	715	1
142	17031	725	1
142	25211	1075	1
142	42798	1830	1
142	44093	1885	1
142	45026	1925	1
142	45130	1930	1
142	46990	2010	1
142	47098	2015	1
142	49803	2130	1
142	51307	2195	1
142	52129	2230	1
142	55386	2370	1
142	55490	2375	1
142	59556	2550	1
142	60387	2585	1
142	61215	2620	1
142	65620	2810	1
142	67852	2905	1
143	6180	260	1
143	7591	320	1
143	12000	510	1
143	16201	690	1
143	18648	795	1
143	20889	890	1
143	23338	995	1
143	23493	1000	1
144	6180	260	256
144	7591	320	312
144	12000	510	498
144	16201	690	674
144	18648	795	775
144	20889	890	626
144	23338	995	671
144	23493	1000	488
145	6180	260	1
145	7591	320	1
145	12000	510	1
145	16201	690	1
145	18648	795	1
145	20889	890	1
145	23338	995	1
145	23493	1000	1
146	6963	295	1
146	10860	460	1
146	11789	500	1
146	12471	530	1
146	14439	615	1
146	14701	625	1
146	17707	755	1
146	19484	830	1
146	21152	900	1
147	6963	295	291
147	10860	460	452
147	11789	500	488
147	12471	530	514
147	14439	615	595
147	14701	625	329
147	17707	755	291
147	19484	830	326
147	21152	900	368
148	6963	295	1
148	10860	460	1
148	11789	500	1
148	12471	530	1
148	14439	615	1
148	14701	625	1
148	17707	755	1
148	19484	830	1
148	21152	900	1
149	7331	310	1
149	7435	315	1
149	19954	850	1
149	20421	870	1
149	20682	880	1
149	21465	915	1
149	23127	985	1
149	23807	1015	1
149	26964	1150	1
149	27070	1155	1
149	27539	1175	1
149	27691	1180	1
149	28937	1235	1
149	29090	1240	1
149	31425	1340	1
149	31530	1345	1
149	32000	1365	1
149	32560	1390	1
149	33852	1445	1
149	34057	1455	1
149	34212	1460	1
149	34316	1465	1
149	34421	1470	1
149	37317	1595	1
149	41766	1785	1
149	41972	1795	1
150	7331	310	306
150	7435	315	307
150	19954	850	838
150	20421	870	854
150	20682	880	860
150	21465	915	603
150	23127	985	669
150	23807	1015	163
150	26964	1150	278
150	27070	1155	271
150	27539	1175	259
150	27691	1180	192
150	28937	1235	219
150	29090	1240	88
150	31425	1340	184
150	31530	1345	169
150	32000	1365	181
150	32560	1390	154
150	33852	1445	201
150	34057	1455	111
150	34212	1460	112
150	34316	1465	97
150	34421	1470	78
150	37317	1595	147
150	41766	1785	329
150	41972	1795	331
151	7331	310	1
151	7435	315	1
151	19954	850	1
151	20421	870	1
151	20682	880	1
151	21465	915	1
151	23127	985	1
151	23807	1015	1
151	26964	1150	1
151	27070	1155	1
151	27539	1175	1
151	27691	1180	1
151	28937	1235	1
151	29090	1240	1
151	31425	1340	1
151	31530	1345	1
151	32000	1365	1
151	32560	1390	1
151	33852	1445	1
151	34057	1455	1
151	34212	1460	1
151	34316	1465	1
151	34421	1470	1
151	37317	1595	1
151	41766	1785	1
151	41972	1795	1
152	8260	350	1
152	8987	380	1
152	12730	540	1
152	36648	1565	1
152	37471	1600	1
152	43519	1860	1
152	48190	2060	1
152	69820	2990	1
152	69924	2995	1
152	74575	3195	1
152	81474	3490	1
153	8260	350	346
153	8987	380	372
153	12730	540	528
153	36648	1565	1549
153	37471	1600	1580
153	43519	1860	1508
153	48190	2060	1676
153	69820	2990	2446
153	69924	2995	1427
153	74575	3195	1591
153	81474	3490	1626
154	8260	350	1
154	8987	380	1
154	12730	540	1
154	36648	1565	1
154	37471	1600	1
154	43519	1860	1
154	48190	2060	1
154	69820	2990	1
154	69924	2995	1
154	74575	3195	1
154	81474	3490	1
155	9558	405	1
155	10389	440	1
155	10494	445	1
155	11172	475	1
155	11325	480	1
155	11429	485	1
156	9558	405	401
156	10389	440	432
156	10494	445	433
156	11172	475	459
156	11325	480	460
156	11429	485	77
157	9558	405	1
157	10389	440	1
157	10494	445	1
157	11172	475	1
157	11325	480	1
157	11429	485	1
158	10706	455	1
159	10706	455	451
160	10706	455	1
161	13297	565	1
161	13501	575	1
161	26140	1115	1
161	26293	1120	1
161	34893	1490	1
161	34995	1495	1
161	35614	1520	1
161	35717	1525	1
161	35820	1530	1
161	35923	1535	1
161	40267	1720	1
161	42691	1825	1
161	44765	1915	1
161	45851	1960	1
161	49595	2120	1
161	50375	2155	1
161	61058	2615	1
161	72867	3120	1
161	72969	3125	1
161	73073	3130	1
161	73179	3135	1
161	78098	3345	1
161	78929	3380	1
161	80441	3445	1
161	82509	3535	1
161	83447	3575	1
161	83599	3580	1
162	13297	565	561
162	13501	575	567
162	26140	1115	1103
162	26293	1120	1104
162	34893	1490	1470
162	34995	1495	927
162	35614	1520	944
162	35717	1525	409
162	35820	1530	406
162	35923	1535	43
162	40267	1720	224
162	42691	1825	301
162	44765	1915	387
162	45851	1960	428
162	49595	2120	584
162	50375	2155	431
162	61058	2615	787
162	72867	3120	1204
162	72969	3125	1161
162	73073	3130	1006
162	73179	3135	979
162	78098	3345	729
162	78929	3380	256
162	80441	3445	317
162	82509	3535	403
162	83447	3575	439
162	83599	3580	232
163	13297	565	1
163	13501	575	1
163	26140	1115	1
163	26293	1120	1
163	34893	1490	1
163	34995	1495	1
163	35614	1520	1
163	35717	1525	1
163	35820	1530	1
163	35923	1535	1
163	40267	1720	1
163	42691	1825	1
163	44765	1915	1
163	45851	1960	1
163	49595	2120	1
163	50375	2155	1
163	61058	2615	1
163	72867	3120	1
163	72969	3125	1
163	73073	3130	1
163	73179	3135	1
163	78098	3345	1
163	78929	3380	1
163	80441	3445	1
163	82509	3535	1
163	83447	3575	1
163	83599	3580	1
164	13654	580	1
164	22090	940	1
164	23233	990	1
164	23336	995	1
164	23491	1000	1
164	24275	1035	1
164	24741	1055	1
164	28158	1200	1
164	44767	1915	1
164	47823	2045	1
164	48397	2070	1
164	48501	2075	1
164	50062	2140	1
164	50165	2145	1
164	53164	2275	1
164	53886	2305	1
164	55492	2375	1
164	61316	2625	1
164	61421	2630	1
164	61524	2635	1
164	61679	2640	1
164	61782	2645	1
164	64322	2755	1
164	64786	2775	1
164	64939	2780	1
164	65516	2805	1
164	65618	2810	1
164	69926	2995	1
164	70545	3020	1
164	72149	3090	1
164	78306	3355	1
164	78460	3360	1
164	79505	3405	1
164	79607	3410	1
164	83911	3595	1
165	13654	580	576
165	22090	940	932
165	23233	990	978
165	23336	995	979
165	23491	1000	980
165	24275	1035	451
165	24741	1055	111
165	28158	1200	208
165	44767	1915	919
165	47823	2045	1041
165	48397	2070	1034
165	48501	2075	1019
165	50062	2140	936
165	50165	2145	229
165	53164	2275	227
165	53886	2305	233
165	55492	2375	299
165	61316	2625	481
165	61421	2630	482
165	61524	2635	359
165	61679	2640	332
165	61782	2645	269
165	64322	2755	127
165	64786	2775	143
165	64939	2780	144
165	65516	2805	161
165	65618	2810	162
165	69926	2995	239
165	70545	3020	244
165	72149	3090	306
165	78306	3355	547
165	78460	3360	548
165	79505	3405	409
165	79607	3410	386
165	83911	3595	503
166	13654	580	1
166	22090	940	1
166	23233	990	1
166	23336	995	1
166	23491	1000	1
166	24275	1035	1
166	24741	1055	1
166	28158	1200	1
166	44767	1915	1
166	47823	2045	1
166	48397	2070	1
166	48501	2075	1
166	50062	2140	1
166	50165	2145	1
166	53164	2275	1
166	53886	2305	1
166	55492	2375	1
166	61316	2625	1
166	61421	2630	1
166	61524	2635	1
166	61679	2640	1
166	61782	2645	1
166	64322	2755	1
166	64786	2775	1
166	64939	2780	1
166	65516	2805	1
166	65618	2810	1
166	69926	2995	1
166	70545	3020	1
166	72149	3090	1
166	78306	3355	1
166	78460	3360	1
166	79505	3405	1
166	79607	3410	1
166	83911	3595	1
167	13969	595	1
167	14125	600	1
167	14229	605	1
167	39906	1705	1
167	42129	1800	1
167	43837	1875	1
167	76910	3295	1
167	77061	3300	1
168	13969	595	591
168	14125	600	592
168	14229	605	593
168	39906	1705	1689
168	42129	1800	1780
168	43837	1875	1279
168	76910	3295	2691
168	77061	3300	2692
169	13969	595	1
169	14125	600	1
169	14229	605	1
169	39906	1705	1
169	42129	1800	1
169	43837	1875	1
169	76910	3295	1
169	77061	3300	1
170	14593	620	1
170	15636	665	1
170	16460	700	1
171	14593	620	616
171	15636	665	657
171	16460	700	688
172	14593	620	1
172	15636	665	1
172	16460	700	1
173	14595	620	1
173	15277	650	1
173	15377	655	1
173	15530	660	1
173	17139	730	1
173	19956	850	1
173	20063	855	1
173	20215	860	1
173	37009	1580	1
173	40580	1735	1
173	43729	1870	1
173	47461	2030	1
174	14595	620	616
174	15277	650	642
174	15377	655	643
174	15530	660	644
174	17139	730	710
174	19956	850	226
174	20063	855	203
174	20215	860	204
174	37009	1580	916
174	40580	1735	1003
174	43729	1870	1018
174	47461	2030	1174
175	14595	620	1
175	15277	650	1
175	15377	655	1
175	15530	660	1
175	17139	730	1
175	19956	850	1
175	20063	855	1
175	20215	860	1
175	37009	1580	1
175	40580	1735	1
175	43729	1870	1
175	47461	2030	1
176	14907	635	1
176	16564	705	1
176	17399	740	1
176	18646	795	1
176	18802	800	1
176	20998	895	1
176	21150	900	1
177	14907	635	631
177	16564	705	697
177	17399	740	728
177	18646	795	779
177	18802	800	780
177	20998	895	259
177	21150	900	192
178	14907	635	1
178	16564	705	1
178	17399	740	1
178	18646	795	1
178	18802	800	1
178	20998	895	1
178	21150	900	1
179	17246	735	1
179	17397	740	1
179	18074	770	1
179	18910	805	1
179	19744	840	1
179	21827	930	1
179	22869	975	1
179	25572	1090	1
179	35254	1505	1
179	38151	1630	1
179	38725	1655	1
179	38875	1660	1
179	38978	1665	1
179	74109	3175	1
179	74944	3210	1
179	77379	3315	1
179	77844	3335	1
179	78673	3370	1
179	78931	3380	1
179	79398	3400	1
179	82045	3515	1
179	82872	3550	1
180	17246	735	731
180	17397	740	732
180	18074	770	758
180	18910	805	789
180	19744	840	820
180	21827	930	194
180	22869	975	231
180	25572	1090	318
180	35254	1505	697
180	38151	1630	786
180	38725	1655	723
180	38875	1660	684
180	38978	1665	573
180	74109	3175	1667
180	74944	3210	1578
180	77379	3315	1659
180	77844	3335	1671
180	78673	3370	1702
180	78931	3380	204
180	79398	3400	188
180	82045	3515	199
180	82872	3550	214
181	17246	735	1
181	17397	740	1
181	18074	770	1
181	18910	805	1
181	19744	840	1
181	21827	930	1
181	22869	975	1
181	25572	1090	1
181	35254	1505	1
181	38151	1630	1
181	38725	1655	1
181	38875	1660	1
181	38978	1665	1
181	74109	3175	1
181	74944	3210	1
181	77379	3315	1
181	77844	3335	1
181	78673	3370	1
181	78931	3380	1
181	79398	3400	1
181	82045	3515	1
181	82872	3550	1
182	19120	815	1
182	19742	840	1
182	21463	915	1
182	73075	3130	1
182	76801	3290	1
182	78462	3360	1
182	79869	3420	1
183	19120	815	811
183	19742	840	832
183	21463	915	903
183	73075	3130	3114
183	76801	3290	3270
183	78462	3360	2544
183	79869	3420	2576
184	19120	815	1
184	19742	840	1
184	21463	915	1
184	73075	3130	1
184	76801	3290	1
184	78462	3360	1
184	79869	3420	1
185	19272	820	1
185	19378	825	1
185	19482	830	1
185	21258	905	1
185	21936	935	1
185	22556	960	1
185	22768	970	1
185	34318	1465	1
185	34423	1470	1
185	34685	1480	1
185	34786	1485	1
186	19272	820	816
186	19378	825	817
186	19482	830	818
186	21258	905	889
186	21936	935	915
186	22556	960	136
186	22768	970	142
186	34318	1465	633
186	34423	1470	562
186	34685	1480	544
186	34786	1485	521
187	19272	820	1
187	19378	825	1
187	19482	830	1
187	21258	905	1
187	21936	935	1
187	22556	960	1
187	22768	970	1
187	34318	1465	1
187	34423	1470	1
187	34685	1480	1
187	34786	1485	1
188	22402	955	1
188	22554	960	1
188	27327	1165	1
188	27430	1170	1
188	29301	1250	1
188	31064	1325	1
188	31892	1360	1
188	45132	1930	1
188	45238	1935	1
188	46886	2005	1
188	46988	2010	1
188	48035	2055	1
188	48868	2090	1
188	49805	2130	1
188	55858	2390	1
188	55959	2395	1
188	56112	2400	1
188	56888	2435	1
188	58995	2525	1
188	59098	2530	1
188	59816	2560	1
188	59917	2565	1
188	60021	2570	1
188	60126	2575	1
188	63538	2720	1
188	63642	2725	1
188	66346	2840	1
188	68684	2940	1
188	69614	2980	1
188	70857	3035	1
189	22402	955	951
189	22554	960	952
189	27327	1165	1153
189	27430	1170	1154
189	29301	1250	1230
189	31064	1325	369
189	31892	1360	396
189	45132	1930	762
189	45238	1935	763
189	46886	2005	753
189	46988	2010	682
189	48035	2055	691
189	48868	2090	158
189	49805	2130	194
189	55858	2390	382
189	55959	2395	383
189	56112	2400	344
189	56888	2435	343
189	58995	2525	393
189	59098	2530	138
189	59816	2560	164
189	59917	2565	161
189	60021	2570	134
189	60126	2575	47
189	63538	2720	188
189	63642	2725	161
189	66346	2840	272
189	68684	2940	368
189	69614	2980	404
189	70857	3035	311
190	22402	955	1
190	22554	960	1
190	27327	1165	1
190	27430	1170	1
190	29301	1250	1
190	31064	1325	1
190	31892	1360	1
190	45132	1930	1
190	45238	1935	1
190	46886	2005	1
190	46988	2010	1
190	48035	2055	1
190	48868	2090	1
190	49805	2130	1
190	55858	2390	1
190	55959	2395	1
190	56112	2400	1
190	56888	2435	1
190	58995	2525	1
190	59098	2530	1
190	59816	2560	1
190	59917	2565	1
190	60021	2570	1
190	60126	2575	1
190	63538	2720	1
190	63642	2725	1
190	66346	2840	1
190	68684	2940	1
190	69614	2980	1
190	70857	3035	1
191	24532	1045	1
191	25209	1075	1
191	25828	1100	1
191	27900	1190	1
191	28627	1220	1
191	29403	1255	1
191	33747	1440	1
191	34529	1475	1
192	24532	1045	1041
192	25209	1075	1067
192	25828	1100	1088
192	27900	1190	1174
192	28627	1220	1200
192	29403	1255	207
192	33747	1440	364
192	34529	1475	371
193	24532	1045	1
193	25209	1075	1
193	25828	1100	1
193	27900	1190	1
193	28627	1220	1
193	29403	1255	1
193	33747	1440	1
193	34529	1475	1
194	30488	1300	1
194	30593	1305	1
194	30698	1310	1
194	37788	1615	1
194	55028	2355	1
195	30488	1300	1296
195	30593	1305	1297
195	30698	1310	1298
195	37788	1615	1599
195	55028	2355	2335
196	30488	1300	1
196	30593	1305	1
196	30698	1310	1
196	37788	1615	1
196	55028	2355	1
197	31637	1350	1
197	43156	1845	1
197	43261	1850	1
197	43363	1855	1
197	46315	1980	1
197	48975	2095	1
198	31637	1350	1346
198	43156	1845	1837
198	43261	1850	1838
198	43363	1855	1839
198	46315	1980	1960
198	48975	2095	743
199	31637	1350	1
199	43156	1845	1
199	43261	1850	1
199	43363	1855	1
199	46315	1980	1
199	48975	2095	1
200	36546	1560	1
200	47253	2020	1
200	47359	2025	1
201	36546	1560	1556
201	47253	2020	2012
201	47359	2025	2013
202	36546	1560	1
202	47253	2020	1
202	47359	2025	1
203	37681	1610	1
203	38616	1650	1
203	67017	2870	1
203	67122	2875	1
204	37681	1610	1606
204	38616	1650	1642
204	67017	2870	2858
204	67122	2875	2859
205	37681	1610	1
205	38616	1650	1
205	67017	2870	1
205	67122	2875	1
206	39439	1685	1
206	40942	1750	1
206	41200	1760	1
206	41410	1770	1
206	47929	2050	1
206	50636	2165	1
206	50739	2170	1
206	51564	2205	1
206	52850	2260	1
207	39439	1685	1681
207	40942	1750	1742
207	41200	1760	1748
207	41410	1770	1754
207	47929	2050	2030
207	50636	2165	477
207	50739	2170	418
207	51564	2205	441
207	52850	2260	488
208	39439	1685	1
208	40942	1750	1
208	41200	1760	1
208	41410	1770	1
208	47929	2050	1
208	50636	2165	1
208	50739	2170	1
208	51564	2205	1
208	52850	2260	1
209	39649	1695	1
209	41202	1760	1
209	41304	1765	1
209	83909	3595	1
210	39649	1695	1691
210	41202	1760	1752
210	41304	1765	1753
210	83909	3595	3579
211	39649	1695	1
211	41202	1760	1
211	41304	1765	1
211	83909	3595	1
212	43154	1845	1
212	47251	2020	1
212	52386	2240	1
212	55647	2380	1
212	55751	2385	1
212	57147	2445	1
212	57250	2450	1
212	58075	2485	1
212	58178	2490	1
212	60128	2575	1
212	60385	2585	1
212	62349	2670	1
212	75413	3230	1
212	75673	3240	1
212	76442	3275	1
213	43154	1845	1841
213	47251	2020	2012
213	52386	2240	2228
213	55647	2380	2364
213	55751	2385	2365
213	57147	2445	597
213	57250	2450	426
213	58075	2485	241
213	58178	2490	106
213	60128	2575	187
213	60385	2585	137
213	62349	2670	218
213	75413	3230	742
213	75673	3240	748
213	76442	3275	699
214	43154	1845	1
214	47251	2020	1
214	52386	2240	1
214	55647	2380	1
214	55751	2385	1
214	57147	2445	1
214	57250	2450	1
214	58075	2485	1
214	58178	2490	1
214	60128	2575	1
214	60385	2585	1
214	62349	2670	1
214	75413	3230	1
214	75673	3240	1
214	76442	3275	1
215	49438	2115	1
215	50741	2170	1
215	51667	2210	1
215	51770	2215	1
215	52492	2245	1
215	54096	2315	1
215	60023	2570	1
215	62143	2660	1
215	63071	2700	1
215	65255	2795	1
215	65408	2800	1
215	65877	2820	1
215	66190	2835	1
215	66344	2840	1
215	67019	2870	1
215	67124	2875	1
215	67280	2880	1
215	67383	2885	1
215	68063	2915	1
215	68319	2925	1
215	68424	2930	1
215	69251	2965	1
215	71579	3065	1
215	78205	3350	1
215	78775	3375	1
215	79609	3410	1
215	79714	3415	1
216	49438	2115	2111
216	50741	2170	2162
216	51667	2210	2198
216	51770	2215	2199
216	52492	2245	2225
216	54096	2315	199
216	60023	2570	398
216	62143	2660	448
216	63071	2700	484
216	65255	2795	547
216	65408	2800	484
216	65877	2820	248
216	66190	2835	171
216	66344	2840	136
216	67019	2870	74
216	67124	2875	71
216	67280	2880	56
216	67383	2885	49
216	68063	2915	71
216	68319	2925	53
216	68424	2930	54
216	69251	2965	81
216	71579	3065	177
216	78205	3350	434
216	78775	3375	447
216	79609	3410	478
216	79714	3415	447
217	49438	2115	1
217	50741	2170	1
217	51667	2210	1
217	51770	2215	1
217	52492	2245	1
217	54096	2315	1
217	60023	2570	1
217	62143	2660	1
217	63071	2700	1
217	65255	2795	1
217	65408	2800	1
217	65877	2820	1
217	66190	2835	1
217	66344	2840	1
217	67019	2870	1
217	67124	2875	1
217	67280	2880	1
217	67383	2885	1
217	68063	2915	1
217	68319	2925	1
217	68424	2930	1
217	69251	2965	1
217	71579	3065	1
217	78205	3350	1
217	78775	3375	1
217	79609	3410	1
217	79714	3415	1
218	53626	2295	1
218	53779	2300	1
218	62610	2680	1
218	63174	2705	1
218	63855	2735	1
218	64009	2740	1
218	64112	2745	1
218	64218	2750	1
218	64941	2780	1
218	65981	2825	1
218	66552	2850	1
218	66655	2855	1
218	67385	2885	1
218	67593	2895	1
218	69148	2960	1
218	69457	2975	1
218	71222	3050	1
218	72713	3115	1
218	73538	3150	1
218	73642	3155	1
218	73798	3160	1
218	73901	3165	1
218	74006	3170	1
218	74577	3195	1
218	75202	3220	1
218	75307	3225	1
218	75411	3230	1
218	77063	3300	1
218	77166	3305	1
218	79140	3390	1
218	80081	3430	1
218	80183	3435	1
218	80906	3465	1
218	82403	3530	1
218	82507	3535	1
218	82663	3540	1
218	82766	3545	1
219	53626	2295	2291
219	53779	2300	2292
219	62610	2680	2668
219	63174	2705	2689
219	63855	2735	2715
219	64009	2740	444
219	64112	2745	441
219	64218	2750	66
219	64941	2780	72
219	65981	2825	89
219	66552	2850	106
219	66655	2855	107
219	67385	2885	133
219	67593	2895	111
219	69148	2960	132
219	69457	2975	123
219	71222	3050	194
219	72713	3115	227
219	73538	3150	254
219	73642	3155	191
219	73798	3160	184
219	73901	3165	113
219	74006	3170	54
219	74577	3195	43
219	75202	3220	64
219	75307	3225	61
219	75411	3230	62
219	77063	3300	128
219	77166	3305	109
219	79140	3390	166
219	80081	3430	202
219	80183	3435	203
219	80906	3465	161
219	82403	3530	222
219	82507	3535	143
219	82663	3540	108
219	82766	3545	109
220	53626	2295	1
220	53779	2300	1
220	62610	2680	1
220	63174	2705	1
220	63855	2735	1
220	64009	2740	1
220	64112	2745	1
220	64218	2750	1
220	64941	2780	1
220	65981	2825	1
220	66552	2850	1
220	66655	2855	1
220	67385	2885	1
220	67593	2895	1
220	69148	2960	1
220	69457	2975	1
220	71222	3050	1
220	72713	3115	1
220	73538	3150	1
220	73642	3155	1
220	73798	3160	1
220	73901	3165	1
220	74006	3170	1
220	74577	3195	1
220	75202	3220	1
220	75307	3225	1
220	75411	3230	1
220	77063	3300	1
220	77166	3305	1
220	79140	3390	1
220	80081	3430	1
220	80183	3435	1
220	80906	3465	1
220	82403	3530	1
220	82507	3535	1
220	82663	3540	1
220	82766	3545	1
221	67491	2890	1
221	67751	2900	1
221	68890	2950	1
221	70543	3020	1
221	71323	3055	1
222	67491	2890	2886
222	67751	2900	2892
222	68890	2950	2938
222	70543	3020	3004
222	71323	3055	3035
223	67491	2890	1
223	67751	2900	1
223	68890	2950	1
223	70543	3020	1
223	71323	3055	1
224	70755	3030	1
224	71114	3045	1
224	77168	3305	1
224	79976	3425	1
225	70755	3030	3026
225	71114	3045	3037
225	77168	3305	3293
225	79976	3425	3409
226	70755	3030	1
226	71114	3045	1
226	77168	3305	1
226	79976	3425	1
227	77634	3325	1
227	81112	3475	1
227	81734	3500	1
227	81938	3510	1
228	77634	3325	3321
228	81112	3475	3467
228	81734	3500	3488
228	81938	3510	3494
229	77634	3325	1
229	81112	3475	1
229	81734	3500	1
229	81938	3510	1

