version 2
run FifthVerification-2-20201214-15:22:31-220953
attr configname FifthVerification
attr datetime 20201214-15:22:31
attr experiment FifthVerification
attr inifile omnetpp.ini
attr iterationvars $0=0.6
attr iterationvarsf 0.6-
attr measurement $0=0.6
attr network slottedNetwork
attr processid 220953
attr repetition 0
attr replication #0
attr resultdir results
attr runnumber 2
attr seedset 2
param **.numTransmitters 50
param **.numChannels 2
param **.bufferSize 5
param **.sendProbability 0.6
param **.expMean 4s
param **.timeSlotSize 5s
param **.thresh 20s
param **.deterministicInterarrivalTime true
param **.numTransmitters 1
param **.numChannels 1
param **.bufferSize 5
param **.sendProbability 1
param **.expMean 5s
param **.timeSlotSize 5s
param **.thresh 20s
param **.deterministicInterarrivalTime false

vector 0 slottedNetwork.transmitters[0] numPacketCreated:vector ETV
attr source numPacketCreatedSignal
vector 1 slottedNetwork.transmitters[1] numPacketCreated:vector ETV
attr source numPacketCreatedSignal
vector 2 slottedNetwork.transmitters[2] numPacketCreated:vector ETV
attr source numPacketCreatedSignal
vector 3 slottedNetwork.transmitters[3] numPacketCreated:vector ETV
attr source numPacketCreatedSignal
vector 4 slottedNetwork.transmitters[4] numPacketCreated:vector ETV
attr source numPacketCreatedSignal
vector 5 slottedNetwork.transmitters[5] numPacketCreated:vector ETV
attr source numPacketCreatedSignal
vector 6 slottedNetwork.transmitters[6] numPacketCreated:vector ETV
attr source numPacketCreatedSignal
vector 7 slottedNetwork.transmitters[7] numPacketCreated:vector ETV
attr source numPacketCreatedSignal
vector 8 slottedNetwork.transmitters[8] numPacketCreated:vector ETV
attr source numPacketCreatedSignal
vector 9 slottedNetwork.transmitters[9] numPacketCreated:vector ETV
attr source numPacketCreatedSignal
vector 10 slottedNetwork.transmitters[10] numPacketCreated:vector ETV
attr source numPacketCreatedSignal
vector 11 slottedNetwork.transmitters[11] numPacketCreated:vector ETV
attr source numPacketCreatedSignal
vector 12 slottedNetwork.transmitters[12] numPacketCreated:vector ETV
attr source numPacketCreatedSignal
vector 13 slottedNetwork.transmitters[13] numPacketCreated:vector ETV
attr source numPacketCreatedSignal
vector 14 slottedNetwork.transmitters[14] numPacketCreated:vector ETV
attr source numPacketCreatedSignal
vector 15 slottedNetwork.transmitters[15] numPacketCreated:vector ETV
attr source numPacketCreatedSignal
vector 16 slottedNetwork.transmitters[16] numPacketCreated:vector ETV
attr source numPacketCreatedSignal
vector 17 slottedNetwork.transmitters[17] numPacketCreated:vector ETV
attr source numPacketCreatedSignal
vector 18 slottedNetwork.transmitters[18] numPacketCreated:vector ETV
attr source numPacketCreatedSignal
vector 19 slottedNetwork.transmitters[19] numPacketCreated:vector ETV
attr source numPacketCreatedSignal
vector 20 slottedNetwork.transmitters[20] numPacketCreated:vector ETV
attr source numPacketCreatedSignal
vector 21 slottedNetwork.transmitters[21] numPacketCreated:vector ETV
attr source numPacketCreatedSignal
vector 22 slottedNetwork.transmitters[22] numPacketCreated:vector ETV
attr source numPacketCreatedSignal
vector 23 slottedNetwork.transmitters[23] numPacketCreated:vector ETV
attr source numPacketCreatedSignal
vector 24 slottedNetwork.transmitters[24] numPacketCreated:vector ETV
attr source numPacketCreatedSignal
vector 25 slottedNetwork.transmitters[25] numPacketCreated:vector ETV
attr source numPacketCreatedSignal
vector 26 slottedNetwork.transmitters[26] numPacketCreated:vector ETV
attr source numPacketCreatedSignal
vector 27 slottedNetwork.transmitters[27] numPacketCreated:vector ETV
attr source numPacketCreatedSignal
vector 28 slottedNetwork.transmitters[28] numPacketCreated:vector ETV
attr source numPacketCreatedSignal
vector 29 slottedNetwork.transmitters[29] numPacketCreated:vector ETV
attr source numPacketCreatedSignal
vector 30 slottedNetwork.transmitters[30] numPacketCreated:vector ETV
attr source numPacketCreatedSignal
vector 31 slottedNetwork.transmitters[31] numPacketCreated:vector ETV
attr source numPacketCreatedSignal
vector 32 slottedNetwork.transmitters[32] numPacketCreated:vector ETV
attr source numPacketCreatedSignal
vector 33 slottedNetwork.transmitters[33] numPacketCreated:vector ETV
attr source numPacketCreatedSignal
vector 34 slottedNetwork.transmitters[34] numPacketCreated:vector ETV
attr source numPacketCreatedSignal
vector 35 slottedNetwork.transmitters[35] numPacketCreated:vector ETV
attr source numPacketCreatedSignal
vector 36 slottedNetwork.transmitters[36] numPacketCreated:vector ETV
attr source numPacketCreatedSignal
vector 37 slottedNetwork.transmitters[37] numPacketCreated:vector ETV
attr source numPacketCreatedSignal
vector 38 slottedNetwork.transmitters[38] numPacketCreated:vector ETV
attr source numPacketCreatedSignal
vector 39 slottedNetwork.transmitters[39] numPacketCreated:vector ETV
attr source numPacketCreatedSignal
vector 40 slottedNetwork.transmitters[40] numPacketCreated:vector ETV
attr source numPacketCreatedSignal
vector 41 slottedNetwork.transmitters[41] numPacketCreated:vector ETV
attr source numPacketCreatedSignal
vector 42 slottedNetwork.transmitters[42] numPacketCreated:vector ETV
attr source numPacketCreatedSignal
vector 43 slottedNetwork.transmitters[43] numPacketCreated:vector ETV
attr source numPacketCreatedSignal
vector 44 slottedNetwork.transmitters[44] numPacketCreated:vector ETV
attr source numPacketCreatedSignal
vector 45 slottedNetwork.transmitters[45] numPacketCreated:vector ETV
attr source numPacketCreatedSignal
vector 46 slottedNetwork.transmitters[46] numPacketCreated:vector ETV
attr source numPacketCreatedSignal
vector 47 slottedNetwork.transmitters[47] numPacketCreated:vector ETV
attr source numPacketCreatedSignal
vector 48 slottedNetwork.transmitters[48] numPacketCreated:vector ETV
attr source numPacketCreatedSignal
vector 49 slottedNetwork.transmitters[49] numPacketCreated:vector ETV
attr source numPacketCreatedSignal
vector 50 slottedNetwork.ch throughput:vector ETV
attr source throughputSignal
vector 51 slottedNetwork.receivers[32] numPacketReceived:vector ETV
attr source numPacketReceivedSignal
vector 52 slottedNetwork.receivers[32] responseTime:vector ETV
attr source responseTimeSignal
vector 53 slottedNetwork.receivers[32] threshold:vector ETV
attr source thresholdSignal
vector 54 slottedNetwork.transmitters[0] numPacketDiscarded:vector ETV
attr source numPacketDiscardedSignal
vector 55 slottedNetwork.transmitters[1] numPacketDiscarded:vector ETV
attr source numPacketDiscardedSignal
vector 56 slottedNetwork.transmitters[2] numPacketDiscarded:vector ETV
attr source numPacketDiscardedSignal
vector 57 slottedNetwork.transmitters[3] numPacketDiscarded:vector ETV
attr source numPacketDiscardedSignal
vector 58 slottedNetwork.transmitters[4] numPacketDiscarded:vector ETV
attr source numPacketDiscardedSignal
vector 59 slottedNetwork.transmitters[5] numPacketDiscarded:vector ETV
attr source numPacketDiscardedSignal
vector 60 slottedNetwork.transmitters[6] numPacketDiscarded:vector ETV
attr source numPacketDiscardedSignal
vector 61 slottedNetwork.transmitters[7] numPacketDiscarded:vector ETV
attr source numPacketDiscardedSignal
vector 62 slottedNetwork.transmitters[8] numPacketDiscarded:vector ETV
attr source numPacketDiscardedSignal
vector 63 slottedNetwork.transmitters[9] numPacketDiscarded:vector ETV
attr source numPacketDiscardedSignal
vector 64 slottedNetwork.transmitters[10] numPacketDiscarded:vector ETV
attr source numPacketDiscardedSignal
vector 65 slottedNetwork.transmitters[11] numPacketDiscarded:vector ETV
attr source numPacketDiscardedSignal
vector 66 slottedNetwork.transmitters[12] numPacketDiscarded:vector ETV
attr source numPacketDiscardedSignal
vector 67 slottedNetwork.transmitters[13] numPacketDiscarded:vector ETV
attr source numPacketDiscardedSignal
vector 68 slottedNetwork.transmitters[14] numPacketDiscarded:vector ETV
attr source numPacketDiscardedSignal
vector 69 slottedNetwork.transmitters[15] numPacketDiscarded:vector ETV
attr source numPacketDiscardedSignal
vector 70 slottedNetwork.transmitters[16] numPacketDiscarded:vector ETV
attr source numPacketDiscardedSignal
vector 71 slottedNetwork.transmitters[17] numPacketDiscarded:vector ETV
attr source numPacketDiscardedSignal
vector 72 slottedNetwork.transmitters[18] numPacketDiscarded:vector ETV
attr source numPacketDiscardedSignal
vector 73 slottedNetwork.transmitters[19] numPacketDiscarded:vector ETV
attr source numPacketDiscardedSignal
vector 74 slottedNetwork.transmitters[20] numPacketDiscarded:vector ETV
attr source numPacketDiscardedSignal
vector 75 slottedNetwork.transmitters[21] numPacketDiscarded:vector ETV
attr source numPacketDiscardedSignal
vector 76 slottedNetwork.transmitters[22] numPacketDiscarded:vector ETV
attr source numPacketDiscardedSignal
vector 77 slottedNetwork.transmitters[23] numPacketDiscarded:vector ETV
attr source numPacketDiscardedSignal
vector 78 slottedNetwork.transmitters[24] numPacketDiscarded:vector ETV
attr source numPacketDiscardedSignal
vector 79 slottedNetwork.transmitters[25] numPacketDiscarded:vector ETV
attr source numPacketDiscardedSignal
vector 80 slottedNetwork.transmitters[26] numPacketDiscarded:vector ETV
attr source numPacketDiscardedSignal
vector 81 slottedNetwork.transmitters[27] numPacketDiscarded:vector ETV
attr source numPacketDiscardedSignal
vector 82 slottedNetwork.transmitters[28] numPacketDiscarded:vector ETV
attr source numPacketDiscardedSignal
vector 83 slottedNetwork.transmitters[29] numPacketDiscarded:vector ETV
attr source numPacketDiscardedSignal
vector 84 slottedNetwork.transmitters[30] numPacketDiscarded:vector ETV
attr source numPacketDiscardedSignal
vector 85 slottedNetwork.transmitters[31] numPacketDiscarded:vector ETV
attr source numPacketDiscardedSignal
vector 86 slottedNetwork.transmitters[33] numPacketDiscarded:vector ETV
attr source numPacketDiscardedSignal
vector 87 slottedNetwork.transmitters[34] numPacketDiscarded:vector ETV
attr source numPacketDiscardedSignal
vector 88 slottedNetwork.transmitters[35] numPacketDiscarded:vector ETV
attr source numPacketDiscardedSignal
vector 89 slottedNetwork.transmitters[36] numPacketDiscarded:vector ETV
attr source numPacketDiscardedSignal
vector 90 slottedNetwork.transmitters[37] numPacketDiscarded:vector ETV
attr source numPacketDiscardedSignal
vector 91 slottedNetwork.transmitters[38] numPacketDiscarded:vector ETV
attr source numPacketDiscardedSignal
vector 92 slottedNetwork.transmitters[39] numPacketDiscarded:vector ETV
attr source numPacketDiscardedSignal
vector 93 slottedNetwork.transmitters[40] numPacketDiscarded:vector ETV
attr source numPacketDiscardedSignal
vector 94 slottedNetwork.transmitters[41] numPacketDiscarded:vector ETV
attr source numPacketDiscardedSignal
vector 95 slottedNetwork.transmitters[42] numPacketDiscarded:vector ETV
attr source numPacketDiscardedSignal
vector 96 slottedNetwork.transmitters[43] numPacketDiscarded:vector ETV
attr source numPacketDiscardedSignal
vector 97 slottedNetwork.transmitters[44] numPacketDiscarded:vector ETV
attr source numPacketDiscardedSignal
vector 98 slottedNetwork.transmitters[45] numPacketDiscarded:vector ETV
attr source numPacketDiscardedSignal
vector 99 slottedNetwork.transmitters[46] numPacketDiscarded:vector ETV
attr source numPacketDiscardedSignal
vector 100 slottedNetwork.transmitters[47] numPacketDiscarded:vector ETV
attr source numPacketDiscardedSignal
vector 101 slottedNetwork.transmitters[48] numPacketDiscarded:vector ETV
attr source numPacketDiscardedSignal
vector 102 slottedNetwork.transmitters[49] numPacketDiscarded:vector ETV
attr source numPacketDiscardedSignal
vector 103 slottedNetwork.transmitters[32] numPacketDiscarded:vector ETV
attr source numPacketDiscardedSignal
vector 104 slottedNetwork.receivers[43] numPacketReceived:vector ETV
attr source numPacketReceivedSignal
vector 105 slottedNetwork.receivers[43] responseTime:vector ETV
attr source responseTimeSignal
vector 106 slottedNetwork.receivers[43] threshold:vector ETV
attr source thresholdSignal
vector 107 slottedNetwork.receivers[10] numPacketReceived:vector ETV
attr source numPacketReceivedSignal
vector 108 slottedNetwork.receivers[10] responseTime:vector ETV
attr source responseTimeSignal
vector 109 slottedNetwork.receivers[10] threshold:vector ETV
attr source thresholdSignal
vector 110 slottedNetwork.receivers[18] numPacketReceived:vector ETV
attr source numPacketReceivedSignal
vector 111 slottedNetwork.receivers[18] responseTime:vector ETV
attr source responseTimeSignal
vector 112 slottedNetwork.receivers[18] threshold:vector ETV
attr source thresholdSignal
vector 113 slottedNetwork.receivers[30] numPacketReceived:vector ETV
attr source numPacketReceivedSignal
vector 114 slottedNetwork.receivers[30] responseTime:vector ETV
attr source responseTimeSignal
vector 115 slottedNetwork.receivers[30] threshold:vector ETV
attr source thresholdSignal
vector 116 slottedNetwork.receivers[1] numPacketReceived:vector ETV
attr source numPacketReceivedSignal
vector 117 slottedNetwork.receivers[1] responseTime:vector ETV
attr source responseTimeSignal
vector 118 slottedNetwork.receivers[1] threshold:vector ETV
attr source thresholdSignal
vector 119 slottedNetwork.receivers[15] numPacketReceived:vector ETV
attr source numPacketReceivedSignal
vector 120 slottedNetwork.receivers[15] responseTime:vector ETV
attr source responseTimeSignal
vector 121 slottedNetwork.receivers[15] threshold:vector ETV
attr source thresholdSignal
vector 122 slottedNetwork.receivers[49] numPacketReceived:vector ETV
attr source numPacketReceivedSignal
vector 123 slottedNetwork.receivers[49] responseTime:vector ETV
attr source responseTimeSignal
vector 124 slottedNetwork.receivers[49] threshold:vector ETV
attr source thresholdSignal
vector 125 slottedNetwork.receivers[9] numPacketReceived:vector ETV
attr source numPacketReceivedSignal
vector 126 slottedNetwork.receivers[9] responseTime:vector ETV
attr source responseTimeSignal
vector 127 slottedNetwork.receivers[9] threshold:vector ETV
attr source thresholdSignal
vector 128 slottedNetwork.receivers[27] numPacketReceived:vector ETV
attr source numPacketReceivedSignal
vector 129 slottedNetwork.receivers[27] responseTime:vector ETV
attr source responseTimeSignal
vector 130 slottedNetwork.receivers[27] threshold:vector ETV
attr source thresholdSignal
vector 131 slottedNetwork.receivers[8] numPacketReceived:vector ETV
attr source numPacketReceivedSignal
vector 132 slottedNetwork.receivers[8] responseTime:vector ETV
attr source responseTimeSignal
vector 133 slottedNetwork.receivers[8] threshold:vector ETV
attr source thresholdSignal
vector 134 slottedNetwork.receivers[13] numPacketReceived:vector ETV
attr source numPacketReceivedSignal
vector 135 slottedNetwork.receivers[13] responseTime:vector ETV
attr source responseTimeSignal
vector 136 slottedNetwork.receivers[13] threshold:vector ETV
attr source thresholdSignal
vector 137 slottedNetwork.receivers[23] numPacketReceived:vector ETV
attr source numPacketReceivedSignal
vector 138 slottedNetwork.receivers[23] responseTime:vector ETV
attr source responseTimeSignal
vector 139 slottedNetwork.receivers[23] threshold:vector ETV
attr source thresholdSignal
vector 140 slottedNetwork.receivers[39] numPacketReceived:vector ETV
attr source numPacketReceivedSignal
vector 141 slottedNetwork.receivers[39] responseTime:vector ETV
attr source responseTimeSignal
vector 142 slottedNetwork.receivers[39] threshold:vector ETV
attr source thresholdSignal
vector 143 slottedNetwork.receivers[3] numPacketReceived:vector ETV
attr source numPacketReceivedSignal
vector 144 slottedNetwork.receivers[3] responseTime:vector ETV
attr source responseTimeSignal
vector 145 slottedNetwork.receivers[3] threshold:vector ETV
attr source thresholdSignal
vector 146 slottedNetwork.receivers[11] numPacketReceived:vector ETV
attr source numPacketReceivedSignal
vector 147 slottedNetwork.receivers[11] responseTime:vector ETV
attr source responseTimeSignal
vector 148 slottedNetwork.receivers[11] threshold:vector ETV
attr source thresholdSignal
vector 149 slottedNetwork.receivers[45] numPacketReceived:vector ETV
attr source numPacketReceivedSignal
vector 150 slottedNetwork.receivers[45] responseTime:vector ETV
attr source responseTimeSignal
vector 151 slottedNetwork.receivers[45] threshold:vector ETV
attr source thresholdSignal
vector 152 slottedNetwork.receivers[7] numPacketReceived:vector ETV
attr source numPacketReceivedSignal
vector 153 slottedNetwork.receivers[7] responseTime:vector ETV
attr source responseTimeSignal
vector 154 slottedNetwork.receivers[7] threshold:vector ETV
attr source thresholdSignal
vector 155 slottedNetwork.receivers[14] numPacketReceived:vector ETV
attr source numPacketReceivedSignal
vector 156 slottedNetwork.receivers[14] responseTime:vector ETV
attr source responseTimeSignal
vector 157 slottedNetwork.receivers[14] threshold:vector ETV
attr source thresholdSignal
vector 158 slottedNetwork.receivers[37] numPacketReceived:vector ETV
attr source numPacketReceivedSignal
vector 159 slottedNetwork.receivers[37] responseTime:vector ETV
attr source responseTimeSignal
vector 160 slottedNetwork.receivers[37] threshold:vector ETV
attr source thresholdSignal
vector 161 slottedNetwork.receivers[46] numPacketReceived:vector ETV
attr source numPacketReceivedSignal
vector 162 slottedNetwork.receivers[46] responseTime:vector ETV
attr source responseTimeSignal
vector 163 slottedNetwork.receivers[46] threshold:vector ETV
attr source thresholdSignal
vector 164 slottedNetwork.receivers[31] numPacketReceived:vector ETV
attr source numPacketReceivedSignal
vector 165 slottedNetwork.receivers[31] responseTime:vector ETV
attr source responseTimeSignal
vector 166 slottedNetwork.receivers[31] threshold:vector ETV
attr source thresholdSignal
vector 167 slottedNetwork.receivers[20] numPacketReceived:vector ETV
attr source numPacketReceivedSignal
vector 168 slottedNetwork.receivers[20] responseTime:vector ETV
attr source responseTimeSignal
vector 169 slottedNetwork.receivers[20] threshold:vector ETV
attr source thresholdSignal
vector 170 slottedNetwork.receivers[38] numPacketReceived:vector ETV
attr source numPacketReceivedSignal
vector 171 slottedNetwork.receivers[38] responseTime:vector ETV
attr source responseTimeSignal
vector 172 slottedNetwork.receivers[38] threshold:vector ETV
attr source thresholdSignal
vector 173 slottedNetwork.receivers[21] numPacketReceived:vector ETV
attr source numPacketReceivedSignal
vector 174 slottedNetwork.receivers[21] responseTime:vector ETV
attr source responseTimeSignal
vector 175 slottedNetwork.receivers[21] threshold:vector ETV
attr source thresholdSignal
vector 176 slottedNetwork.receivers[47] numPacketReceived:vector ETV
attr source numPacketReceivedSignal
vector 177 slottedNetwork.receivers[47] responseTime:vector ETV
attr source responseTimeSignal
vector 178 slottedNetwork.receivers[47] threshold:vector ETV
attr source thresholdSignal
vector 179 slottedNetwork.receivers[34] numPacketReceived:vector ETV
attr source numPacketReceivedSignal
vector 180 slottedNetwork.receivers[34] responseTime:vector ETV
attr source responseTimeSignal
vector 181 slottedNetwork.receivers[34] threshold:vector ETV
attr source thresholdSignal
vector 182 slottedNetwork.receivers[12] numPacketReceived:vector ETV
attr source numPacketReceivedSignal
vector 183 slottedNetwork.receivers[12] responseTime:vector ETV
attr source responseTimeSignal
vector 184 slottedNetwork.receivers[12] threshold:vector ETV
attr source thresholdSignal
vector 185 slottedNetwork.receivers[25] numPacketReceived:vector ETV
attr source numPacketReceivedSignal
vector 186 slottedNetwork.receivers[25] responseTime:vector ETV
attr source responseTimeSignal
vector 187 slottedNetwork.receivers[25] threshold:vector ETV
attr source thresholdSignal
vector 188 slottedNetwork.receivers[22] numPacketReceived:vector ETV
attr source numPacketReceivedSignal
vector 189 slottedNetwork.receivers[22] responseTime:vector ETV
attr source responseTimeSignal
vector 190 slottedNetwork.receivers[22] threshold:vector ETV
attr source thresholdSignal
vector 191 slottedNetwork.receivers[0] numPacketReceived:vector ETV
attr source numPacketReceivedSignal
vector 192 slottedNetwork.receivers[0] responseTime:vector ETV
attr source responseTimeSignal
vector 193 slottedNetwork.receivers[0] threshold:vector ETV
attr source thresholdSignal
vector 194 slottedNetwork.receivers[44] numPacketReceived:vector ETV
attr source numPacketReceivedSignal
vector 195 slottedNetwork.receivers[44] responseTime:vector ETV
attr source responseTimeSignal
vector 196 slottedNetwork.receivers[44] threshold:vector ETV
attr source thresholdSignal
vector 197 slottedNetwork.receivers[33] numPacketReceived:vector ETV
attr source numPacketReceivedSignal
vector 198 slottedNetwork.receivers[33] responseTime:vector ETV
attr source responseTimeSignal
vector 199 slottedNetwork.receivers[33] threshold:vector ETV
attr source thresholdSignal
vector 200 slottedNetwork.receivers[40] numPacketReceived:vector ETV
attr source numPacketReceivedSignal
vector 201 slottedNetwork.receivers[40] responseTime:vector ETV
attr source responseTimeSignal
vector 202 slottedNetwork.receivers[40] threshold:vector ETV
attr source thresholdSignal
vector 203 slottedNetwork.receivers[41] numPacketReceived:vector ETV
attr source numPacketReceivedSignal
vector 204 slottedNetwork.receivers[41] responseTime:vector ETV
attr source responseTimeSignal
vector 205 slottedNetwork.receivers[41] threshold:vector ETV
attr source thresholdSignal
vector 206 slottedNetwork.receivers[28] numPacketReceived:vector ETV
attr source numPacketReceivedSignal
vector 207 slottedNetwork.receivers[28] responseTime:vector ETV
attr source responseTimeSignal
vector 208 slottedNetwork.receivers[28] threshold:vector ETV
attr source thresholdSignal
vector 209 slottedNetwork.receivers[24] numPacketReceived:vector ETV
attr source numPacketReceivedSignal
vector 210 slottedNetwork.receivers[24] responseTime:vector ETV
attr source responseTimeSignal
vector 211 slottedNetwork.receivers[24] threshold:vector ETV
attr source thresholdSignal
vector 212 slottedNetwork.receivers[29] numPacketReceived:vector ETV
attr source numPacketReceivedSignal
vector 213 slottedNetwork.receivers[29] responseTime:vector ETV
attr source responseTimeSignal
vector 214 slottedNetwork.receivers[29] threshold:vector ETV
attr source thresholdSignal
vector 215 slottedNetwork.receivers[36] numPacketReceived:vector ETV
attr source numPacketReceivedSignal
vector 216 slottedNetwork.receivers[36] responseTime:vector ETV
attr source responseTimeSignal
vector 217 slottedNetwork.receivers[36] threshold:vector ETV
attr source thresholdSignal
vector 218 slottedNetwork.receivers[16] numPacketReceived:vector ETV
attr source numPacketReceivedSignal
vector 219 slottedNetwork.receivers[16] responseTime:vector ETV
attr source responseTimeSignal
vector 220 slottedNetwork.receivers[16] threshold:vector ETV
attr source thresholdSignal
vector 221 slottedNetwork.receivers[35] numPacketReceived:vector ETV
attr source numPacketReceivedSignal
vector 222 slottedNetwork.receivers[35] responseTime:vector ETV
attr source responseTimeSignal
vector 223 slottedNetwork.receivers[35] threshold:vector ETV
attr source thresholdSignal
vector 224 slottedNetwork.receivers[26] numPacketReceived:vector ETV
attr source numPacketReceivedSignal
vector 225 slottedNetwork.receivers[26] responseTime:vector ETV
attr source responseTimeSignal
vector 226 slottedNetwork.receivers[26] threshold:vector ETV
attr source thresholdSignal
vector 227 slottedNetwork.receivers[48] numPacketReceived:vector ETV
attr source numPacketReceivedSignal
vector 228 slottedNetwork.receivers[48] responseTime:vector ETV
attr source responseTimeSignal
vector 229 slottedNetwork.receivers[48] threshold:vector ETV
attr source thresholdSignal
vector 230 slottedNetwork.receivers[4] numPacketReceived:vector ETV
attr source numPacketReceivedSignal
vector 231 slottedNetwork.receivers[4] responseTime:vector ETV
attr source responseTimeSignal
vector 232 slottedNetwork.receivers[4] threshold:vector ETV
attr source thresholdSignal
0	1	4	1
0	131	8	1
0	248	12	1
0	350	16	1
0	401	20	1
0	512	24	1
0	623	28	1
0	735	32	1
0	846	36	1
0	897	40	1
0	1010	44	1
0	1116	48	1
0	1222	52	1
0	1335	56	1
0	1386	60	1
0	1492	64	1
0	1603	68	1
0	1709	72	1
0	1816	76	1
0	1867	80	1
0	1976	84	1
0	2080	88	1
0	2190	92	1
0	2294	96	1
0	2345	100	1
0	2447	104	1
0	2555	108	1
0	2662	112	1
0	2767	116	1
0	2818	120	1
0	2922	124	1
0	3029	128	1
0	3134	132	1
0	3242	136	1
0	3293	140	1
0	3397	144	1
0	3503	148	1
0	3610	152	1
0	3715	156	1
0	3766	160	1
0	3869	164	1
0	3970	168	1
0	4074	172	1
0	4177	176	1
0	4228	180	1
0	4331	184	1
0	4440	188	1
0	4541	192	1
0	4644	196	1
0	4695	200	1
0	4800	204	1
0	4901	208	1
0	5005	212	1
0	5111	216	1
0	5162	220	1
0	5264	224	1
0	5367	228	1
0	5476	232	1
0	5581	236	1
0	5632	240	1
0	5733	244	1
0	5840	248	1
0	5943	252	1
0	6052	256	1
0	6103	260	1
0	6203	264	1
0	6307	268	1
0	6413	272	1
0	6520	276	1
0	6571	280	1
0	6671	284	1
0	6772	288	1
0	6875	292	1
0	6979	296	1
0	7030	300	1
0	7135	304	1
0	7238	308	1
0	7339	312	1
0	7441	316	1
0	7492	320	1
0	7593	324	1
0	7697	328	1
0	7802	332	1
0	7904	336	1
0	7955	340	1
0	8058	344	1
0	8162	348	1
0	8268	352	1
0	8371	356	1
0	8422	360	1
0	8528	364	1
0	8629	368	1
0	8731	372	1
0	8835	376	1
0	8886	380	1
0	8990	384	1
0	9095	388	1
0	9203	392	1
0	9308	396	1
0	9359	400	1
0	9462	404	1
0	9568	408	1
0	9674	412	1
0	9780	416	1
0	9831	420	1
0	9938	424	1
0	10040	428	1
0	10145	432	1
0	10249	436	1
0	10300	440	1
0	10402	444	1
0	10508	448	1
0	10613	452	1
0	10718	456	1
0	10769	460	1
0	10873	464	1
0	10978	468	1
0	11084	472	1
0	11187	476	1
0	11238	480	1
0	11345	484	1
0	11450	488	1
0	11555	492	1
0	11659	496	1
0	11710	500	1
0	11813	504	1
0	11921	508	1
0	12025	512	1
0	12129	516	1
0	12180	520	1
0	12282	524	1
0	12390	528	1
0	12494	532	1
0	12600	536	1
0	12651	540	1
0	12754	544	1
0	12858	548	1
0	12961	552	1
0	13066	556	1
0	13117	560	1
0	13223	564	1
0	13325	568	1
0	13430	572	1
0	13536	576	1
0	13587	580	1
0	13690	584	1
0	13797	588	1
0	13901	592	1
0	14004	596	1
0	14055	600	1
0	14158	604	1
0	14266	608	1
0	14370	612	1
0	14474	616	1
0	14525	620	1
0	14628	624	1
0	14732	628	1
0	14839	632	1
0	14944	636	1
0	14995	640	1
0	15096	644	1
0	15204	648	1
0	15310	652	1
0	15415	656	1
0	15466	660	1
0	15571	664	1
0	15673	668	1
0	15777	672	1
0	15879	676	1
0	15930	680	1
0	16034	684	1
0	16138	688	1
0	16241	692	1
0	16345	696	1
0	16396	700	1
0	16497	704	1
0	16600	708	1
0	16704	712	1
0	16808	716	1
0	16859	720	1
0	16962	724	1
0	17068	728	1
0	17173	732	1
0	17278	736	1
0	17329	740	1
0	17433	744	1
0	17535	748	1
0	17640	752	1
0	17743	756	1
0	17794	760	1
0	17900	764	1
0	18002	768	1
0	18107	772	1
0	18213	776	1
0	18264	780	1
0	18366	784	1
0	18473	788	1
0	18576	792	1
0	18678	796	1
0	18729	800	1
0	18831	804	1
0	18936	808	1
0	19044	812	1
0	19148	816	1
0	19199	820	1
0	19299	824	1
0	19403	828	1
0	19509	832	1
0	19615	836	1
0	19666	840	1
0	19770	844	1
0	19873	848	1
0	19976	852	1
0	20079	856	1
0	20130	860	1
0	20234	864	1
0	20340	868	1
0	20444	872	1
0	20546	876	1
0	20597	880	1
0	20701	884	1
0	20803	888	1
0	20908	892	1
0	21011	896	1
0	21062	900	1
0	21167	904	1
0	21272	908	1
0	21376	912	1
0	21479	916	1
0	21530	920	1
0	21633	924	1
0	21739	928	1
0	21844	932	1
0	21949	936	1
0	22000	940	1
0	22105	944	1
0	22209	948	1
0	22315	952	1
0	22421	956	1
0	22472	960	1
0	22576	964	1
0	22681	968	1
0	22789	972	1
0	22892	976	1
0	22943	980	1
0	23046	984	1
0	23149	988	1
0	23254	992	1
0	23357	996	1
0	23408	1000	1
0	23509	1004	1
0	23613	1008	1
0	23716	1012	1
0	23826	1016	1
0	23877	1020	1
0	23979	1024	1
0	24085	1028	1
0	24189	1032	1
0	24296	1036	1
0	24347	1040	1
0	24452	1044	1
0	24556	1048	1
0	24662	1052	1
0	24767	1056	1
0	24818	1060	1
0	24924	1064	1
0	25029	1068	1
0	25134	1072	1
0	25241	1076	1
0	25292	1080	1
0	25392	1084	1
0	25494	1088	1
0	25600	1092	1
0	25706	1096	1
0	25757	1100	1
0	25859	1104	1
0	25961	1108	1
0	26064	1112	1
0	26171	1116	1
0	26222	1120	1
0	26328	1124	1
0	26430	1128	1
0	26536	1132	1
0	26638	1136	1
0	26689	1140	1
0	26790	1144	1
0	26895	1148	1
0	26998	1152	1
0	27103	1156	1
0	27154	1160	1
0	27255	1164	1
0	27358	1168	1
0	27462	1172	1
0	27567	1176	1
0	27618	1180	1
0	27719	1184	1
0	27822	1188	1
0	27927	1192	1
0	28030	1196	1
0	28081	1200	1
0	28183	1204	1
0	28286	1208	1
0	28390	1212	1
0	28494	1216	1
0	28545	1220	1
0	28646	1224	1
0	28750	1228	1
0	28851	1232	1
0	28954	1236	1
0	29005	1240	1
0	29107	1244	1
0	29209	1248	1
0	29313	1252	1
0	29417	1256	1
0	29468	1260	1
0	29571	1264	1
0	29676	1268	1
0	29780	1272	1
0	29883	1276	1
0	29934	1280	1
0	30039	1284	1
0	30143	1288	1
0	30246	1292	1
0	30348	1296	1
0	30399	1300	1
0	30501	1304	1
0	30604	1308	1
0	30709	1312	1
0	30813	1316	1
0	30864	1320	1
0	30966	1324	1
0	31071	1328	1
0	31175	1332	1
0	31283	1336	1
0	31334	1340	1
0	31434	1344	1
0	31537	1348	1
0	31640	1352	1
0	31746	1356	1
0	31797	1360	1
0	31900	1364	1
0	32003	1368	1
0	32104	1372	1
0	32207	1376	1
0	32258	1380	1
0	32361	1384	1
0	32463	1388	1
0	32565	1392	1
0	32670	1396	1
0	32721	1400	1
0	32824	1404	1
0	32926	1408	1
0	33030	1412	1
0	33134	1416	1
0	33185	1420	1
0	33288	1424	1
0	33389	1428	1
0	33494	1432	1
0	33598	1436	1
0	33649	1440	1
0	33752	1444	1
0	33853	1448	1
0	33956	1452	1
0	34063	1456	1
0	34114	1460	1
0	34216	1464	1
0	34317	1468	1
0	34420	1472	1
0	34526	1476	1
0	34577	1480	1
0	34679	1484	1
0	34782	1488	1
0	34888	1492	1
0	34993	1496	1
0	35044	1500	1
0	35149	1504	1
0	35254	1508	1
0	35359	1512	1
0	35463	1516	1
0	35514	1520	1
0	35617	1524	1
0	35723	1528	1
0	35826	1532	1
0	35929	1536	1
0	35980	1540	1
0	36084	1544	1
0	36188	1548	1
0	36292	1552	1
0	36401	1556	1
0	36452	1560	1
0	36554	1564	1
0	36657	1568	1
0	36758	1572	1
0	36861	1576	1
0	36912	1580	1
0	37017	1584	1
0	37122	1588	1
0	37227	1592	1
0	37332	1596	1
0	37383	1600	1
0	37486	1604	1
0	37588	1608	1
0	37693	1612	1
0	37797	1616	1
0	37848	1620	1
0	37951	1624	1
0	38056	1628	1
0	38160	1632	1
0	38262	1636	1
0	38313	1640	1
0	38416	1644	1
0	38522	1648	1
0	38628	1652	1
0	38731	1656	1
0	38782	1660	1
0	38888	1664	1
0	38989	1668	1
0	39091	1672	1
0	39195	1676	1
0	39246	1680	1
0	39352	1684	1
0	39455	1688	1
0	39563	1692	1
0	39664	1696	1
0	39715	1700	1
0	39818	1704	1
0	39919	1708	1
0	40021	1712	1
0	40124	1716	1
0	40175	1720	1
0	40280	1724	1
0	40384	1728	1
0	40487	1732	1
0	40591	1736	1
0	40642	1740	1
0	40747	1744	1
0	40854	1748	1
0	40959	1752	1
0	41062	1756	1
0	41113	1760	1
0	41217	1764	1
0	41320	1768	1
0	41426	1772	1
0	41530	1776	1
0	41581	1780	1
0	41687	1784	1
0	41789	1788	1
0	41894	1792	1
0	41997	1796	1
0	42048	1800	1
0	42151	1804	1
0	42255	1808	1
0	42356	1812	1
0	42458	1816	1
0	42509	1820	1
0	42615	1824	1
0	42717	1828	1
0	42820	1832	1
0	42924	1836	1
0	42975	1840	1
0	43079	1844	1
0	43182	1848	1
0	43288	1852	1
0	43392	1856	1
0	43443	1860	1
0	43549	1864	1
0	43652	1868	1
0	43755	1872	1
0	43859	1876	1
0	43910	1880	1
0	44014	1884	1
0	44118	1888	1
0	44222	1892	1
0	44328	1896	1
0	44379	1900	1
0	44483	1904	1
0	44589	1908	1
0	44694	1912	1
0	44797	1916	1
0	44848	1920	1
0	44951	1924	1
0	45054	1928	1
0	45158	1932	1
0	45262	1936	1
0	45313	1940	1
0	45417	1944	1
0	45523	1948	1
0	45628	1952	1
0	45733	1956	1
0	45784	1960	1
0	45886	1964	1
0	45991	1968	1
0	46094	1972	1
0	46198	1976	1
0	46249	1980	1
0	46352	1984	1
0	46454	1988	1
0	46560	1992	1
0	46664	1996	1
0	46715	2000	1
0	46820	2004	1
0	46924	2008	1
0	47030	2012	1
0	47133	2016	1
0	47184	2020	1
0	47289	2024	1
0	47393	2028	1
0	47500	2032	1
0	47602	2036	1
0	47653	2040	1
0	47757	2044	1
0	47860	2048	1
0	47967	2052	1
0	48070	2056	1
0	48121	2060	1
0	48222	2064	1
0	48328	2068	1
0	48433	2072	1
0	48539	2076	1
0	48590	2080	1
0	48696	2084	1
0	48798	2088	1
0	48900	2092	1
0	49007	2096	1
0	49058	2100	1
0	49160	2104	1
0	49266	2108	1
0	49370	2112	1
0	49472	2116	1
0	49523	2120	1
0	49626	2124	1
0	49734	2128	1
0	49838	2132	1
0	49939	2136	1
0	49990	2140	1
0	50092	2144	1
0	50199	2148	1
0	50302	2152	1
0	50404	2156	1
0	50455	2160	1
0	50558	2164	1
0	50665	2168	1
0	50766	2172	1
0	50869	2176	1
0	50920	2180	1
0	51024	2184	1
0	51127	2188	1
0	51229	2192	1
0	51333	2196	1
0	51384	2200	1
0	51485	2204	1
0	51589	2208	1
0	51694	2212	1
0	51801	2216	1
0	51852	2220	1
0	51958	2224	1
0	52060	2228	1
0	52165	2232	1
0	52270	2236	1
0	52321	2240	1
0	52422	2244	1
0	52524	2248	1
0	52629	2252	1
0	52734	2256	1
0	52785	2260	1
0	52888	2264	1
0	52998	2268	1
0	53101	2272	1
0	53203	2276	1
0	53254	2280	1
0	53355	2284	1
0	53458	2288	1
0	53559	2292	1
0	53665	2296	1
0	53716	2300	1
0	53817	2304	1
0	53924	2308	1
0	54025	2312	1
0	54128	2316	1
0	54179	2320	1
0	54283	2324	1
0	54386	2328	1
0	54489	2332	1
0	54596	2336	1
0	54647	2340	1
0	54751	2344	1
0	54853	2348	1
0	54957	2352	1
0	55061	2356	1
0	55112	2360	1
0	55216	2364	1
0	55323	2368	1
0	55424	2372	1
0	55526	2376	1
0	55577	2380	1
0	55682	2384	1
0	55783	2388	1
0	55886	2392	1
0	55992	2396	1
0	56043	2400	1
0	56150	2404	1
0	56252	2408	1
0	56355	2412	1
0	56459	2416	1
0	56510	2420	1
0	56614	2424	1
0	56719	2428	1
0	56823	2432	1
0	56925	2436	1
0	56976	2440	1
0	57079	2444	1
0	57184	2448	1
0	57290	2452	1
0	57392	2456	1
0	57443	2460	1
0	57548	2464	1
0	57651	2468	1
0	57756	2472	1
0	57861	2476	1
0	57912	2480	1
0	58017	2484	1
0	58122	2488	1
0	58225	2492	1
0	58329	2496	1
0	58380	2500	1
0	58483	2504	1
0	58590	2508	1
0	58693	2512	1
0	58800	2516	1
0	58851	2520	1
0	58956	2524	1
0	59058	2528	1
0	59163	2532	1
0	59267	2536	1
0	59318	2540	1
0	59421	2544	1
0	59526	2548	1
0	59629	2552	1
0	59735	2556	1
0	59786	2560	1
0	59889	2564	1
0	59996	2568	1
0	60101	2572	1
0	60203	2576	1
0	60254	2580	1
0	60357	2584	1
0	60460	2588	1
0	60566	2592	1
0	60670	2596	1
0	60721	2600	1
0	60823	2604	1
0	60929	2608	1
0	61031	2612	1
0	61137	2616	1
0	61188	2620	1
0	61289	2624	1
0	61393	2628	1
0	61496	2632	1
0	61597	2636	1
0	61648	2640	1
0	61752	2644	1
0	61856	2648	1
0	61957	2652	1
0	62059	2656	1
0	62110	2660	1
0	62211	2664	1
0	62315	2668	1
0	62417	2672	1
0	62520	2676	1
0	62571	2680	1
0	62675	2684	1
0	62777	2688	1
0	62881	2692	1
0	62983	2696	1
0	63034	2700	1
0	63137	2704	1
0	63239	2708	1
0	63343	2712	1
0	63448	2716	1
0	63499	2720	1
0	63602	2724	1
0	63705	2728	1
0	63807	2732	1
0	63911	2736	1
0	63962	2740	1
0	64065	2744	1
0	64173	2748	1
0	64276	2752	1
0	64381	2756	1
0	64432	2760	1
0	64535	2764	1
0	64638	2768	1
0	64742	2772	1
0	64847	2776	1
0	64898	2780	1
0	65006	2784	1
0	65109	2788	1
0	65213	2792	1
0	65318	2796	1
0	65369	2800	1
0	65473	2804	1
0	65576	2808	1
0	65677	2812	1
0	65780	2816	1
0	65831	2820	1
0	65933	2824	1
0	66034	2828	1
0	66138	2832	1
0	66242	2836	1
0	66293	2840	1
0	66399	2844	1
0	66503	2848	1
0	66608	2852	1
0	66715	2856	1
0	66766	2860	1
0	66869	2864	1
0	66974	2868	1
0	67076	2872	1
0	67182	2876	1
0	67233	2880	1
0	67335	2884	1
0	67437	2888	1
0	67542	2892	1
0	67643	2896	1
0	67694	2900	1
0	67794	2904	1
0	67897	2908	1
0	68004	2912	1
0	68108	2916	1
0	68159	2920	1
0	68263	2924	1
0	68366	2928	1
0	68473	2932	1
0	68574	2936	1
0	68625	2940	1
0	68726	2944	1
0	68830	2948	1
0	68933	2952	1
0	69040	2956	1
0	69091	2960	1
0	69192	2964	1
0	69296	2968	1
0	69399	2972	1
0	69505	2976	1
0	69556	2980	1
0	69658	2984	1
0	69765	2988	1
0	69871	2992	1
0	69975	2996	1
0	70026	3000	1
0	70131	3004	1
0	70235	3008	1
0	70337	3012	1
0	70442	3016	1
0	70493	3020	1
0	70595	3024	1
0	70700	3028	1
0	70805	3032	1
0	70909	3036	1
0	70960	3040	1
0	71063	3044	1
0	71171	3048	1
0	71274	3052	1
0	71375	3056	1
0	71426	3060	1
0	71527	3064	1
0	71630	3068	1
0	71736	3072	1
0	71842	3076	1
0	71893	3080	1
0	71994	3084	1
0	72097	3088	1
0	72202	3092	1
0	72306	3096	1
0	72357	3100	1
0	72461	3104	1
0	72565	3108	1
0	72670	3112	1
0	72772	3116	1
0	72823	3120	1
0	72928	3124	1
0	73033	3128	1
0	73135	3132	1
0	73236	3136	1
0	73287	3140	1
0	73389	3144	1
0	73493	3148	1
0	73599	3152	1
0	73700	3156	1
0	73751	3160	1
0	73852	3164	1
0	73956	3168	1
0	74061	3172	1
0	74165	3176	1
0	74216	3180	1
0	74316	3184	1
0	74421	3188	1
0	74527	3192	1
0	74630	3196	1
0	74681	3200	1
0	74785	3204	1
0	74887	3208	1
0	74989	3212	1
0	75094	3216	1
0	75145	3220	1
0	75247	3224	1
0	75349	3228	1
0	75456	3232	1
0	75558	3236	1
0	75609	3240	1
0	75711	3244	1
0	75814	3248	1
0	75918	3252	1
0	76020	3256	1
0	76071	3260	1
0	76173	3264	1
0	76278	3268	1
0	76384	3272	1
0	76488	3276	1
0	76539	3280	1
0	76646	3284	1
0	76748	3288	1
0	76852	3292	1
0	76958	3296	1
0	77009	3300	1
0	77113	3304	1
0	77218	3308	1
0	77323	3312	1
0	77426	3316	1
0	77477	3320	1
0	77578	3324	1
0	77683	3328	1
0	77787	3332	1
0	77888	3336	1
0	77939	3340	1
0	78042	3344	1
0	78148	3348	1
0	78254	3352	1
0	78357	3356	1
0	78408	3360	1
0	78511	3364	1
0	78615	3368	1
0	78719	3372	1
0	78820	3376	1
0	78871	3380	1
0	78973	3384	1
0	79075	3388	1
0	79181	3392	1
0	79284	3396	1
0	79335	3400	1
0	79439	3404	1
0	79542	3408	1
0	79648	3412	1
0	79752	3416	1
0	79803	3420	1
0	79908	3424	1
0	80014	3428	1
0	80118	3432	1
0	80225	3436	1
0	80276	3440	1
0	80378	3444	1
0	80482	3448	1
0	80589	3452	1
0	80693	3456	1
0	80744	3460	1
0	80844	3464	1
0	80945	3468	1
0	81046	3472	1
0	81148	3476	1
0	81199	3480	1
0	81304	3484	1
0	81405	3488	1
0	81506	3492	1
0	81608	3496	1
0	81659	3500	1
0	81765	3504	1
0	81867	3508	1
0	81972	3512	1
0	82074	3516	1
0	82125	3520	1
0	82228	3524	1
0	82330	3528	1
0	82433	3532	1
0	82540	3536	1
0	82591	3540	1
0	82691	3544	1
0	82794	3548	1
0	82896	3552	1
0	83002	3556	1
0	83053	3560	1
0	83154	3564	1
0	83258	3568	1
0	83363	3572	1
0	83468	3576	1
0	83519	3580	1
0	83621	3584	1
0	83728	3588	1
0	83833	3592	1
0	83935	3596	1
0	83986	3600	1
1	2	4	1
1	132	8	1
1	249	12	1
1	351	16	1
1	402	20	1
1	513	24	1
1	624	28	1
1	736	32	1
1	847	36	1
1	898	40	1
1	1011	44	1
1	1117	48	1
1	1223	52	1
1	1336	56	1
1	1387	60	1
1	1493	64	1
1	1604	68	1
1	1710	72	1
1	1817	76	1
1	1868	80	1
1	1977	84	1
1	2081	88	1
1	2191	92	1
1	2295	96	1
1	2346	100	1
1	2448	104	1
1	2556	108	1
1	2663	112	1
1	2768	116	1
1	2819	120	1
1	2923	124	1
1	3030	128	1
1	3135	132	1
1	3243	136	1
1	3294	140	1
1	3398	144	1
1	3504	148	1
1	3611	152	1
1	3716	156	1
1	3767	160	1
1	3870	164	1
1	3971	168	1
1	4075	172	1
1	4178	176	1
1	4229	180	1
1	4332	184	1
1	4441	188	1
1	4542	192	1
1	4645	196	1
1	4696	200	1
1	4801	204	1
1	4902	208	1
1	5006	212	1
1	5112	216	1
1	5163	220	1
1	5265	224	1
1	5368	228	1
1	5477	232	1
1	5582	236	1
1	5633	240	1
1	5734	244	1
1	5841	248	1
1	5944	252	1
1	6053	256	1
1	6104	260	1
1	6204	264	1
1	6308	268	1
1	6414	272	1
1	6521	276	1
1	6572	280	1
1	6672	284	1
1	6773	288	1
1	6876	292	1
1	6980	296	1
1	7031	300	1
1	7136	304	1
1	7239	308	1
1	7340	312	1
1	7442	316	1
1	7493	320	1
1	7594	324	1
1	7698	328	1
1	7803	332	1
1	7905	336	1
1	7956	340	1
1	8059	344	1
1	8163	348	1
1	8269	352	1
1	8372	356	1
1	8423	360	1
1	8529	364	1
1	8630	368	1
1	8732	372	1
1	8836	376	1
1	8887	380	1
1	8991	384	1
1	9096	388	1
1	9204	392	1
1	9309	396	1
1	9360	400	1
1	9463	404	1
1	9569	408	1
1	9675	412	1
1	9781	416	1
1	9832	420	1
1	9939	424	1
1	10041	428	1
1	10146	432	1
1	10250	436	1
1	10301	440	1
1	10403	444	1
1	10509	448	1
1	10614	452	1
1	10719	456	1
1	10770	460	1
1	10874	464	1
1	10979	468	1
1	11085	472	1
1	11188	476	1
1	11239	480	1
1	11346	484	1
1	11451	488	1
1	11556	492	1
1	11660	496	1
1	11711	500	1
1	11814	504	1
1	11922	508	1
1	12026	512	1
1	12130	516	1
1	12181	520	1
1	12283	524	1
1	12391	528	1
1	12495	532	1
1	12601	536	1
1	12652	540	1
1	12755	544	1
1	12859	548	1
1	12962	552	1
1	13067	556	1
1	13118	560	1
1	13224	564	1
1	13326	568	1
1	13431	572	1
1	13537	576	1
1	13588	580	1
1	13691	584	1
1	13798	588	1
1	13902	592	1
1	14005	596	1
1	14056	600	1
1	14159	604	1
1	14267	608	1
1	14371	612	1
1	14475	616	1
1	14526	620	1
1	14629	624	1
1	14733	628	1
1	14840	632	1
1	14945	636	1
1	14996	640	1
1	15097	644	1
1	15205	648	1
1	15311	652	1
1	15416	656	1
1	15467	660	1
1	15572	664	1
1	15674	668	1
1	15778	672	1
1	15880	676	1
1	15931	680	1
1	16035	684	1
1	16139	688	1
1	16242	692	1
1	16346	696	1
1	16397	700	1
1	16498	704	1
1	16601	708	1
1	16705	712	1
1	16809	716	1
1	16860	720	1
1	16963	724	1
1	17069	728	1
1	17174	732	1
1	17279	736	1
1	17330	740	1
1	17434	744	1
1	17536	748	1
1	17641	752	1
1	17744	756	1
1	17795	760	1
1	17901	764	1
1	18003	768	1
1	18108	772	1
1	18214	776	1
1	18265	780	1
1	18367	784	1
1	18474	788	1
1	18577	792	1
1	18679	796	1
1	18730	800	1
1	18832	804	1
1	18937	808	1
1	19045	812	1
1	19149	816	1
1	19200	820	1
1	19300	824	1
1	19404	828	1
1	19510	832	1
1	19616	836	1
1	19667	840	1
1	19771	844	1
1	19874	848	1
1	19977	852	1
1	20080	856	1
1	20131	860	1
1	20235	864	1
1	20341	868	1
1	20445	872	1
1	20547	876	1
1	20598	880	1
1	20702	884	1
1	20804	888	1
1	20909	892	1
1	21012	896	1
1	21063	900	1
1	21168	904	1
1	21273	908	1
1	21377	912	1
1	21480	916	1
1	21531	920	1
1	21634	924	1
1	21740	928	1
1	21845	932	1
1	21950	936	1
1	22001	940	1
1	22106	944	1
1	22210	948	1
1	22316	952	1
1	22422	956	1
1	22473	960	1
1	22577	964	1
1	22682	968	1
1	22790	972	1
1	22893	976	1
1	22944	980	1
1	23047	984	1
1	23150	988	1
1	23255	992	1
1	23358	996	1
1	23409	1000	1
1	23510	1004	1
1	23614	1008	1
1	23717	1012	1
1	23827	1016	1
1	23878	1020	1
1	23980	1024	1
1	24086	1028	1
1	24190	1032	1
1	24297	1036	1
1	24348	1040	1
1	24453	1044	1
1	24557	1048	1
1	24663	1052	1
1	24768	1056	1
1	24819	1060	1
1	24925	1064	1
1	25030	1068	1
1	25135	1072	1
1	25242	1076	1
1	25293	1080	1
1	25393	1084	1
1	25495	1088	1
1	25601	1092	1
1	25707	1096	1
1	25758	1100	1
1	25860	1104	1
1	25962	1108	1
1	26065	1112	1
1	26172	1116	1
1	26223	1120	1
1	26329	1124	1
1	26431	1128	1
1	26537	1132	1
1	26639	1136	1
1	26690	1140	1
1	26791	1144	1
1	26896	1148	1
1	26999	1152	1
1	27104	1156	1
1	27155	1160	1
1	27256	1164	1
1	27359	1168	1
1	27463	1172	1
1	27568	1176	1
1	27619	1180	1
1	27720	1184	1
1	27823	1188	1
1	27928	1192	1
1	28031	1196	1
1	28082	1200	1
1	28184	1204	1
1	28287	1208	1
1	28391	1212	1
1	28495	1216	1
1	28546	1220	1
1	28647	1224	1
1	28751	1228	1
1	28852	1232	1
1	28955	1236	1
1	29006	1240	1
1	29108	1244	1
1	29210	1248	1
1	29314	1252	1
1	29418	1256	1
1	29469	1260	1
1	29572	1264	1
1	29677	1268	1
1	29781	1272	1
1	29884	1276	1
1	29935	1280	1
1	30040	1284	1
1	30144	1288	1
1	30247	1292	1
1	30349	1296	1
1	30400	1300	1
1	30502	1304	1
1	30605	1308	1
1	30710	1312	1
1	30814	1316	1
1	30865	1320	1
1	30967	1324	1
1	31072	1328	1
1	31176	1332	1
1	31284	1336	1
1	31335	1340	1
1	31435	1344	1
1	31538	1348	1
1	31641	1352	1
1	31747	1356	1
1	31798	1360	1
1	31901	1364	1
1	32004	1368	1
1	32105	1372	1
1	32208	1376	1
1	32259	1380	1
1	32362	1384	1
1	32464	1388	1
1	32566	1392	1
1	32671	1396	1
1	32722	1400	1
1	32825	1404	1
1	32927	1408	1
1	33031	1412	1
1	33135	1416	1
1	33186	1420	1
1	33289	1424	1
1	33390	1428	1
1	33495	1432	1
1	33599	1436	1
1	33650	1440	1
1	33753	1444	1
1	33854	1448	1
1	33957	1452	1
1	34064	1456	1
1	34115	1460	1
1	34217	1464	1
1	34318	1468	1
1	34421	1472	1
1	34527	1476	1
1	34578	1480	1
1	34680	1484	1
1	34783	1488	1
1	34889	1492	1
1	34994	1496	1
1	35045	1500	1
1	35150	1504	1
1	35255	1508	1
1	35360	1512	1
1	35464	1516	1
1	35515	1520	1
1	35618	1524	1
1	35724	1528	1
1	35827	1532	1
1	35930	1536	1
1	35981	1540	1
1	36085	1544	1
1	36189	1548	1
1	36293	1552	1
1	36402	1556	1
1	36453	1560	1
1	36555	1564	1
1	36658	1568	1
1	36759	1572	1
1	36862	1576	1
1	36913	1580	1
1	37018	1584	1
1	37123	1588	1
1	37228	1592	1
1	37333	1596	1
1	37384	1600	1
1	37487	1604	1
1	37589	1608	1
1	37694	1612	1
1	37798	1616	1
1	37849	1620	1
1	37952	1624	1
1	38057	1628	1
1	38161	1632	1
1	38263	1636	1
1	38314	1640	1
1	38417	1644	1
1	38523	1648	1
1	38629	1652	1
1	38732	1656	1
1	38783	1660	1
1	38889	1664	1
1	38990	1668	1
1	39092	1672	1
1	39196	1676	1
1	39247	1680	1
1	39353	1684	1
1	39456	1688	1
1	39564	1692	1
1	39665	1696	1
1	39716	1700	1
1	39819	1704	1
1	39920	1708	1
1	40022	1712	1
1	40125	1716	1
1	40176	1720	1
1	40281	1724	1
1	40385	1728	1
1	40488	1732	1
1	40592	1736	1
1	40643	1740	1
1	40748	1744	1
1	40855	1748	1
1	40960	1752	1
1	41063	1756	1
1	41114	1760	1
1	41218	1764	1
1	41321	1768	1
1	41427	1772	1
1	41531	1776	1
1	41582	1780	1
1	41688	1784	1
1	41790	1788	1
1	41895	1792	1
1	41998	1796	1
1	42049	1800	1
1	42152	1804	1
1	42256	1808	1
1	42357	1812	1
1	42459	1816	1
1	42510	1820	1
1	42616	1824	1
1	42718	1828	1
1	42821	1832	1
1	42925	1836	1
1	42976	1840	1
1	43080	1844	1
1	43183	1848	1
1	43289	1852	1
1	43393	1856	1
1	43444	1860	1
1	43550	1864	1
1	43653	1868	1
1	43756	1872	1
1	43860	1876	1
1	43911	1880	1
1	44015	1884	1
1	44119	1888	1
1	44223	1892	1
1	44329	1896	1
1	44380	1900	1
1	44484	1904	1
1	44590	1908	1
1	44695	1912	1
1	44798	1916	1
1	44849	1920	1
1	44952	1924	1
1	45055	1928	1
1	45159	1932	1
1	45263	1936	1
1	45314	1940	1
1	45418	1944	1
1	45524	1948	1
1	45629	1952	1
1	45734	1956	1
1	45785	1960	1
1	45887	1964	1
1	45992	1968	1
1	46095	1972	1
1	46199	1976	1
1	46250	1980	1
1	46353	1984	1
1	46455	1988	1
1	46561	1992	1
1	46665	1996	1
1	46716	2000	1
1	46821	2004	1
1	46925	2008	1
1	47031	2012	1
1	47134	2016	1
1	47185	2020	1
1	47290	2024	1
1	47394	2028	1
1	47501	2032	1
1	47603	2036	1
1	47654	2040	1
1	47758	2044	1
1	47861	2048	1
1	47968	2052	1
1	48071	2056	1
1	48122	2060	1
1	48223	2064	1
1	48329	2068	1
1	48434	2072	1
1	48540	2076	1
1	48591	2080	1
1	48697	2084	1
1	48799	2088	1
1	48901	2092	1
1	49008	2096	1
1	49059	2100	1
1	49161	2104	1
1	49267	2108	1
1	49371	2112	1
1	49473	2116	1
1	49524	2120	1
1	49627	2124	1
1	49735	2128	1
1	49839	2132	1
1	49940	2136	1
1	49991	2140	1
1	50093	2144	1
1	50200	2148	1
1	50303	2152	1
1	50405	2156	1
1	50456	2160	1
1	50559	2164	1
1	50666	2168	1
1	50767	2172	1
1	50870	2176	1
1	50921	2180	1
1	51025	2184	1
1	51128	2188	1
1	51230	2192	1
1	51334	2196	1
1	51385	2200	1
1	51486	2204	1
1	51590	2208	1
1	51695	2212	1
1	51802	2216	1
1	51853	2220	1
1	51959	2224	1
1	52061	2228	1
1	52166	2232	1
1	52271	2236	1
1	52322	2240	1
1	52423	2244	1
1	52525	2248	1
1	52630	2252	1
1	52735	2256	1
1	52786	2260	1
1	52889	2264	1
1	52999	2268	1
1	53102	2272	1
1	53204	2276	1
1	53255	2280	1
1	53356	2284	1
1	53459	2288	1
1	53560	2292	1
1	53666	2296	1
1	53717	2300	1
1	53818	2304	1
1	53925	2308	1
1	54026	2312	1
1	54129	2316	1
1	54180	2320	1
1	54284	2324	1
1	54387	2328	1
1	54490	2332	1
1	54597	2336	1
1	54648	2340	1
1	54752	2344	1
1	54854	2348	1
1	54958	2352	1
1	55062	2356	1
1	55113	2360	1
1	55217	2364	1
1	55324	2368	1
1	55425	2372	1
1	55527	2376	1
1	55578	2380	1
1	55683	2384	1
1	55784	2388	1
1	55887	2392	1
1	55993	2396	1
1	56044	2400	1
1	56151	2404	1
1	56253	2408	1
1	56356	2412	1
1	56460	2416	1
1	56511	2420	1
1	56615	2424	1
1	56720	2428	1
1	56824	2432	1
1	56926	2436	1
1	56977	2440	1
1	57080	2444	1
1	57185	2448	1
1	57291	2452	1
1	57393	2456	1
1	57444	2460	1
1	57549	2464	1
1	57652	2468	1
1	57757	2472	1
1	57862	2476	1
1	57913	2480	1
1	58018	2484	1
1	58123	2488	1
1	58226	2492	1
1	58330	2496	1
1	58381	2500	1
1	58484	2504	1
1	58591	2508	1
1	58694	2512	1
1	58801	2516	1
1	58852	2520	1
1	58957	2524	1
1	59059	2528	1
1	59164	2532	1
1	59268	2536	1
1	59319	2540	1
1	59422	2544	1
1	59527	2548	1
1	59630	2552	1
1	59736	2556	1
1	59787	2560	1
1	59890	2564	1
1	59997	2568	1
1	60102	2572	1
1	60204	2576	1
1	60255	2580	1
1	60358	2584	1
1	60461	2588	1
1	60567	2592	1
1	60671	2596	1
1	60722	2600	1
1	60824	2604	1
1	60930	2608	1
1	61032	2612	1
1	61138	2616	1
1	61189	2620	1
1	61290	2624	1
1	61394	2628	1
1	61497	2632	1
1	61598	2636	1
1	61649	2640	1
1	61753	2644	1
1	61857	2648	1
1	61958	2652	1
1	62060	2656	1
1	62111	2660	1
1	62212	2664	1
1	62316	2668	1
1	62418	2672	1
1	62521	2676	1
1	62572	2680	1
1	62676	2684	1
1	62778	2688	1
1	62882	2692	1
1	62984	2696	1
1	63035	2700	1
1	63138	2704	1
1	63240	2708	1
1	63344	2712	1
1	63449	2716	1
1	63500	2720	1
1	63603	2724	1
1	63706	2728	1
1	63808	2732	1
1	63912	2736	1
1	63963	2740	1
1	64066	2744	1
1	64174	2748	1
1	64277	2752	1
1	64382	2756	1
1	64433	2760	1
1	64536	2764	1
1	64639	2768	1
1	64743	2772	1
1	64848	2776	1
1	64899	2780	1
1	65007	2784	1
1	65110	2788	1
1	65214	2792	1
1	65319	2796	1
1	65370	2800	1
1	65474	2804	1
1	65577	2808	1
1	65678	2812	1
1	65781	2816	1
1	65832	2820	1
1	65934	2824	1
1	66035	2828	1
1	66139	2832	1
1	66243	2836	1
1	66294	2840	1
1	66400	2844	1
1	66504	2848	1
1	66609	2852	1
1	66716	2856	1
1	66767	2860	1
1	66870	2864	1
1	66975	2868	1
1	67077	2872	1
1	67183	2876	1
1	67234	2880	1
1	67336	2884	1
1	67438	2888	1
1	67543	2892	1
1	67644	2896	1
1	67695	2900	1
1	67795	2904	1
1	67898	2908	1
1	68005	2912	1
1	68109	2916	1
1	68160	2920	1
1	68264	2924	1
1	68367	2928	1
1	68474	2932	1
1	68575	2936	1
1	68626	2940	1
1	68727	2944	1
1	68831	2948	1
1	68934	2952	1
1	69041	2956	1
1	69092	2960	1
1	69193	2964	1
1	69297	2968	1
1	69400	2972	1
1	69506	2976	1
1	69557	2980	1
1	69659	2984	1
1	69766	2988	1
1	69872	2992	1
1	69976	2996	1
1	70027	3000	1
1	70132	3004	1
1	70236	3008	1
1	70338	3012	1
1	70443	3016	1
1	70494	3020	1
1	70596	3024	1
1	70701	3028	1
1	70806	3032	1
1	70910	3036	1
1	70961	3040	1
1	71064	3044	1
1	71172	3048	1
1	71275	3052	1
1	71376	3056	1
1	71427	3060	1
1	71528	3064	1
1	71631	3068	1
1	71737	3072	1
1	71843	3076	1
1	71894	3080	1
1	71995	3084	1
1	72098	3088	1
1	72203	3092	1
1	72307	3096	1
1	72358	3100	1
1	72462	3104	1
1	72566	3108	1
1	72671	3112	1
1	72773	3116	1
1	72824	3120	1
1	72929	3124	1
1	73034	3128	1
1	73136	3132	1
1	73237	3136	1
1	73288	3140	1
1	73390	3144	1
1	73494	3148	1
1	73600	3152	1
1	73701	3156	1
1	73752	3160	1
1	73853	3164	1
1	73957	3168	1
1	74062	3172	1
1	74166	3176	1
1	74217	3180	1
1	74317	3184	1
1	74422	3188	1
1	74528	3192	1
1	74631	3196	1
1	74682	3200	1
1	74786	3204	1
1	74888	3208	1
1	74990	3212	1
1	75095	3216	1
1	75146	3220	1
1	75248	3224	1
1	75350	3228	1
1	75457	3232	1
1	75559	3236	1
1	75610	3240	1
1	75712	3244	1
1	75815	3248	1
1	75919	3252	1
1	76021	3256	1
1	76072	3260	1
1	76174	3264	1
1	76279	3268	1
1	76385	3272	1
1	76489	3276	1
1	76540	3280	1
1	76647	3284	1
1	76749	3288	1
1	76853	3292	1
1	76959	3296	1
1	77010	3300	1
1	77114	3304	1
1	77219	3308	1
1	77324	3312	1
1	77427	3316	1
1	77478	3320	1
1	77579	3324	1
1	77684	3328	1
1	77788	3332	1
1	77889	3336	1
1	77940	3340	1
1	78043	3344	1
1	78149	3348	1
1	78255	3352	1
1	78358	3356	1
1	78409	3360	1
1	78512	3364	1
1	78616	3368	1
1	78720	3372	1
1	78821	3376	1
1	78872	3380	1
1	78974	3384	1
1	79076	3388	1
1	79182	3392	1
1	79285	3396	1
1	79336	3400	1
1	79440	3404	1
1	79543	3408	1
1	79649	3412	1
1	79753	3416	1
1	79804	3420	1
1	79909	3424	1
1	80015	3428	1
1	80119	3432	1
1	80226	3436	1
1	80277	3440	1
1	80379	3444	1
1	80483	3448	1
1	80590	3452	1
1	80694	3456	1
1	80745	3460	1
1	80845	3464	1
1	80946	3468	1
1	81047	3472	1
1	81149	3476	1
1	81200	3480	1
1	81305	3484	1
1	81406	3488	1
1	81507	3492	1
1	81609	3496	1
1	81660	3500	1
1	81766	3504	1
1	81868	3508	1
1	81973	3512	1
1	82075	3516	1
1	82126	3520	1
1	82229	3524	1
1	82331	3528	1
1	82434	3532	1
1	82541	3536	1
1	82592	3540	1
1	82692	3544	1
1	82795	3548	1
1	82897	3552	1
1	83003	3556	1
1	83054	3560	1
1	83155	3564	1
1	83259	3568	1
1	83364	3572	1
1	83469	3576	1
1	83520	3580	1
1	83622	3584	1
1	83729	3588	1
1	83834	3592	1
1	83936	3596	1
1	83987	3600	1
2	3	4	1
2	133	8	1
2	250	12	1
2	352	16	1
2	403	20	1
2	514	24	1
2	625	28	1
2	737	32	1
2	848	36	1
2	899	40	1
2	1012	44	1
2	1118	48	1
2	1224	52	1
2	1337	56	1
2	1388	60	1
2	1494	64	1
2	1605	68	1
2	1711	72	1
2	1818	76	1
2	1869	80	1
2	1978	84	1
2	2082	88	1
2	2192	92	1
2	2296	96	1
2	2347	100	1
2	2449	104	1
2	2557	108	1
2	2664	112	1
2	2769	116	1
2	2820	120	1
2	2924	124	1
2	3031	128	1
2	3136	132	1
2	3244	136	1
2	3295	140	1
2	3399	144	1
2	3505	148	1
2	3612	152	1
2	3717	156	1
2	3768	160	1
2	3871	164	1
2	3972	168	1
2	4076	172	1
2	4179	176	1
2	4230	180	1
2	4333	184	1
2	4442	188	1
2	4543	192	1
2	4646	196	1
2	4697	200	1
2	4802	204	1
2	4903	208	1
2	5007	212	1
2	5113	216	1
2	5164	220	1
2	5266	224	1
2	5369	228	1
2	5478	232	1
2	5583	236	1
2	5634	240	1
2	5735	244	1
2	5842	248	1
2	5945	252	1
2	6054	256	1
2	6105	260	1
2	6205	264	1
2	6309	268	1
2	6415	272	1
2	6522	276	1
2	6573	280	1
2	6673	284	1
2	6774	288	1
2	6877	292	1
2	6981	296	1
2	7032	300	1
2	7137	304	1
2	7240	308	1
2	7341	312	1
2	7443	316	1
2	7494	320	1
2	7595	324	1
2	7699	328	1
2	7804	332	1
2	7906	336	1
2	7957	340	1
2	8060	344	1
2	8164	348	1
2	8270	352	1
2	8373	356	1
2	8424	360	1
2	8530	364	1
2	8631	368	1
2	8733	372	1
2	8837	376	1
2	8888	380	1
2	8992	384	1
2	9097	388	1
2	9205	392	1
2	9310	396	1
2	9361	400	1
2	9464	404	1
2	9570	408	1
2	9676	412	1
2	9782	416	1
2	9833	420	1
2	9940	424	1
2	10042	428	1
2	10147	432	1
2	10251	436	1
2	10302	440	1
2	10404	444	1
2	10510	448	1
2	10615	452	1
2	10720	456	1
2	10771	460	1
2	10875	464	1
2	10980	468	1
2	11086	472	1
2	11189	476	1
2	11240	480	1
2	11347	484	1
2	11452	488	1
2	11557	492	1
2	11661	496	1
2	11712	500	1
2	11815	504	1
2	11923	508	1
2	12027	512	1
2	12131	516	1
2	12182	520	1
2	12284	524	1
2	12392	528	1
2	12496	532	1
2	12602	536	1
2	12653	540	1
2	12756	544	1
2	12860	548	1
2	12963	552	1
2	13068	556	1
2	13119	560	1
2	13225	564	1
2	13327	568	1
2	13432	572	1
2	13538	576	1
2	13589	580	1
2	13692	584	1
2	13799	588	1
2	13903	592	1
2	14006	596	1
2	14057	600	1
2	14160	604	1
2	14268	608	1
2	14372	612	1
2	14476	616	1
2	14527	620	1
2	14630	624	1
2	14734	628	1
2	14841	632	1
2	14946	636	1
2	14997	640	1
2	15098	644	1
2	15206	648	1
2	15312	652	1
2	15417	656	1
2	15468	660	1
2	15573	664	1
2	15675	668	1
2	15779	672	1
2	15881	676	1
2	15932	680	1
2	16036	684	1
2	16140	688	1
2	16243	692	1
2	16347	696	1
2	16398	700	1
2	16499	704	1
2	16602	708	1
2	16706	712	1
2	16810	716	1
2	16861	720	1
2	16964	724	1
2	17070	728	1
2	17175	732	1
2	17280	736	1
2	17331	740	1
2	17435	744	1
2	17537	748	1
2	17642	752	1
2	17745	756	1
2	17796	760	1
2	17902	764	1
2	18004	768	1
2	18109	772	1
2	18215	776	1
2	18266	780	1
2	18368	784	1
2	18475	788	1
2	18578	792	1
2	18680	796	1
2	18731	800	1
2	18833	804	1
2	18938	808	1
2	19046	812	1
2	19150	816	1
2	19201	820	1
2	19301	824	1
2	19405	828	1
2	19511	832	1
2	19617	836	1
2	19668	840	1
2	19772	844	1
2	19875	848	1
2	19978	852	1
2	20081	856	1
2	20132	860	1
2	20236	864	1
2	20342	868	1
2	20446	872	1
2	20548	876	1
2	20599	880	1
2	20703	884	1
2	20805	888	1
2	20910	892	1
2	21013	896	1
2	21064	900	1
2	21169	904	1
2	21274	908	1
2	21378	912	1
2	21481	916	1
2	21532	920	1
2	21635	924	1
2	21741	928	1
2	21846	932	1
2	21951	936	1
2	22002	940	1
2	22107	944	1
2	22211	948	1
2	22317	952	1
2	22423	956	1
2	22474	960	1
2	22578	964	1
2	22683	968	1
2	22791	972	1
2	22894	976	1
2	22945	980	1
2	23048	984	1
2	23151	988	1
2	23256	992	1
2	23359	996	1
2	23410	1000	1
2	23511	1004	1
2	23615	1008	1
2	23718	1012	1
2	23828	1016	1
2	23879	1020	1
2	23981	1024	1
2	24087	1028	1
2	24191	1032	1
2	24298	1036	1
2	24349	1040	1
2	24454	1044	1
2	24558	1048	1
2	24664	1052	1
2	24769	1056	1
2	24820	1060	1
2	24926	1064	1
2	25031	1068	1
2	25136	1072	1
2	25243	1076	1
2	25294	1080	1
2	25394	1084	1
2	25496	1088	1
2	25602	1092	1
2	25708	1096	1
2	25759	1100	1
2	25861	1104	1
2	25963	1108	1
2	26066	1112	1
2	26173	1116	1
2	26224	1120	1
2	26330	1124	1
2	26432	1128	1
2	26538	1132	1
2	26640	1136	1
2	26691	1140	1
2	26792	1144	1
2	26897	1148	1
2	27000	1152	1
2	27105	1156	1
2	27156	1160	1
2	27257	1164	1
2	27360	1168	1
2	27464	1172	1
2	27569	1176	1
2	27620	1180	1
2	27721	1184	1
2	27824	1188	1
2	27929	1192	1
2	28032	1196	1
2	28083	1200	1
2	28185	1204	1
2	28288	1208	1
2	28392	1212	1
2	28496	1216	1
2	28547	1220	1
2	28648	1224	1
2	28752	1228	1
2	28853	1232	1
2	28956	1236	1
2	29007	1240	1
2	29109	1244	1
2	29211	1248	1
2	29315	1252	1
2	29419	1256	1
2	29470	1260	1
2	29573	1264	1
2	29678	1268	1
2	29782	1272	1
2	29885	1276	1
2	29936	1280	1
2	30041	1284	1
2	30145	1288	1
2	30248	1292	1
2	30350	1296	1
2	30401	1300	1
2	30503	1304	1
2	30606	1308	1
2	30711	1312	1
2	30815	1316	1
2	30866	1320	1
2	30968	1324	1
2	31073	1328	1
2	31177	1332	1
2	31285	1336	1
2	31336	1340	1
2	31436	1344	1
2	31539	1348	1
2	31642	1352	1
2	31748	1356	1
2	31799	1360	1
2	31902	1364	1
2	32005	1368	1
2	32106	1372	1
2	32209	1376	1
2	32260	1380	1
2	32363	1384	1
2	32465	1388	1
2	32567	1392	1
2	32672	1396	1
2	32723	1400	1
2	32826	1404	1
2	32928	1408	1
2	33032	1412	1
2	33136	1416	1
2	33187	1420	1
2	33290	1424	1
2	33391	1428	1
2	33496	1432	1
2	33600	1436	1
2	33651	1440	1
2	33754	1444	1
2	33855	1448	1
2	33958	1452	1
2	34065	1456	1
2	34116	1460	1
2	34218	1464	1
2	34319	1468	1
2	34422	1472	1
2	34528	1476	1
2	34579	1480	1
2	34681	1484	1
2	34784	1488	1
2	34890	1492	1
2	34995	1496	1
2	35046	1500	1
2	35151	1504	1
2	35256	1508	1
2	35361	1512	1
2	35465	1516	1
2	35516	1520	1
2	35619	1524	1
2	35725	1528	1
2	35828	1532	1
2	35931	1536	1
2	35982	1540	1
2	36086	1544	1
2	36190	1548	1
2	36294	1552	1
2	36403	1556	1
2	36454	1560	1
2	36556	1564	1
2	36659	1568	1
2	36760	1572	1
2	36863	1576	1
2	36914	1580	1
2	37019	1584	1
2	37124	1588	1
2	37229	1592	1
2	37334	1596	1
2	37385	1600	1
2	37488	1604	1
2	37590	1608	1
2	37695	1612	1
2	37799	1616	1
2	37850	1620	1
2	37953	1624	1
2	38058	1628	1
2	38162	1632	1
2	38264	1636	1
2	38315	1640	1
2	38418	1644	1
2	38524	1648	1
2	38630	1652	1
2	38733	1656	1
2	38784	1660	1
2	38890	1664	1
2	38991	1668	1
2	39093	1672	1
2	39197	1676	1
2	39248	1680	1
2	39354	1684	1
2	39457	1688	1
2	39565	1692	1
2	39666	1696	1
2	39717	1700	1
2	39820	1704	1
2	39921	1708	1
2	40023	1712	1
2	40126	1716	1
2	40177	1720	1
2	40282	1724	1
2	40386	1728	1
2	40489	1732	1
2	40593	1736	1
2	40644	1740	1
2	40749	1744	1
2	40856	1748	1
2	40961	1752	1
2	41064	1756	1
2	41115	1760	1
2	41219	1764	1
2	41322	1768	1
2	41428	1772	1
2	41532	1776	1
2	41583	1780	1
2	41689	1784	1
2	41791	1788	1
2	41896	1792	1
2	41999	1796	1
2	42050	1800	1
2	42153	1804	1
2	42257	1808	1
2	42358	1812	1
2	42460	1816	1
2	42511	1820	1
2	42617	1824	1
2	42719	1828	1
2	42822	1832	1
2	42926	1836	1
2	42977	1840	1
2	43081	1844	1
2	43184	1848	1
2	43290	1852	1
2	43394	1856	1
2	43445	1860	1
2	43551	1864	1
2	43654	1868	1
2	43757	1872	1
2	43861	1876	1
2	43912	1880	1
2	44016	1884	1
2	44120	1888	1
2	44224	1892	1
2	44330	1896	1
2	44381	1900	1
2	44485	1904	1
2	44591	1908	1
2	44696	1912	1
2	44799	1916	1
2	44850	1920	1
2	44953	1924	1
2	45056	1928	1
2	45160	1932	1
2	45264	1936	1
2	45315	1940	1
2	45419	1944	1
2	45525	1948	1
2	45630	1952	1
2	45735	1956	1
2	45786	1960	1
2	45888	1964	1
2	45993	1968	1
2	46096	1972	1
2	46200	1976	1
2	46251	1980	1
2	46354	1984	1
2	46456	1988	1
2	46562	1992	1
2	46666	1996	1
2	46717	2000	1
2	46822	2004	1
2	46926	2008	1
2	47032	2012	1
2	47135	2016	1
2	47186	2020	1
2	47291	2024	1
2	47395	2028	1
2	47502	2032	1
2	47604	2036	1
2	47655	2040	1
2	47759	2044	1
2	47862	2048	1
2	47969	2052	1
2	48072	2056	1
2	48123	2060	1
2	48224	2064	1
2	48330	2068	1
2	48435	2072	1
2	48541	2076	1
2	48592	2080	1
2	48698	2084	1
2	48800	2088	1
2	48902	2092	1
2	49009	2096	1
2	49060	2100	1
2	49162	2104	1
2	49268	2108	1
2	49372	2112	1
2	49474	2116	1
2	49525	2120	1
2	49628	2124	1
2	49736	2128	1
2	49840	2132	1
2	49941	2136	1
2	49992	2140	1
2	50094	2144	1
2	50201	2148	1
2	50304	2152	1
2	50406	2156	1
2	50457	2160	1
2	50560	2164	1
2	50667	2168	1
2	50768	2172	1
2	50871	2176	1
2	50922	2180	1
2	51026	2184	1
2	51129	2188	1
2	51231	2192	1
2	51335	2196	1
2	51386	2200	1
2	51487	2204	1
2	51591	2208	1
2	51696	2212	1
2	51803	2216	1
2	51854	2220	1
2	51960	2224	1
2	52062	2228	1
2	52167	2232	1
2	52272	2236	1
2	52323	2240	1
2	52424	2244	1
2	52526	2248	1
2	52631	2252	1
2	52736	2256	1
2	52787	2260	1
2	52890	2264	1
2	53000	2268	1
2	53103	2272	1
2	53205	2276	1
2	53256	2280	1
2	53357	2284	1
2	53460	2288	1
2	53561	2292	1
2	53667	2296	1
2	53718	2300	1
2	53819	2304	1
2	53926	2308	1
2	54027	2312	1
2	54130	2316	1
2	54181	2320	1
2	54285	2324	1
2	54388	2328	1
2	54491	2332	1
2	54598	2336	1
2	54649	2340	1
2	54753	2344	1
2	54855	2348	1
2	54959	2352	1
2	55063	2356	1
2	55114	2360	1
2	55218	2364	1
2	55325	2368	1
2	55426	2372	1
2	55528	2376	1
2	55579	2380	1
2	55684	2384	1
2	55785	2388	1
2	55888	2392	1
2	55994	2396	1
2	56045	2400	1
2	56152	2404	1
2	56254	2408	1
2	56357	2412	1
2	56461	2416	1
2	56512	2420	1
2	56616	2424	1
2	56721	2428	1
2	56825	2432	1
2	56927	2436	1
2	56978	2440	1
2	57081	2444	1
2	57186	2448	1
2	57292	2452	1
2	57394	2456	1
2	57445	2460	1
2	57550	2464	1
2	57653	2468	1
2	57758	2472	1
2	57863	2476	1
2	57914	2480	1
2	58019	2484	1
2	58124	2488	1
2	58227	2492	1
2	58331	2496	1
2	58382	2500	1
2	58485	2504	1
2	58592	2508	1
2	58695	2512	1
2	58802	2516	1
2	58853	2520	1
2	58958	2524	1
2	59060	2528	1
2	59165	2532	1
2	59269	2536	1
2	59320	2540	1
2	59423	2544	1
2	59528	2548	1
2	59631	2552	1
2	59737	2556	1
2	59788	2560	1
2	59891	2564	1
2	59998	2568	1
2	60103	2572	1
2	60205	2576	1
2	60256	2580	1
2	60359	2584	1
2	60462	2588	1
2	60568	2592	1
2	60672	2596	1
2	60723	2600	1
2	60825	2604	1
2	60931	2608	1
2	61033	2612	1
2	61139	2616	1
2	61190	2620	1
2	61291	2624	1
2	61395	2628	1
2	61498	2632	1
2	61599	2636	1
2	61650	2640	1
2	61754	2644	1
2	61858	2648	1
2	61959	2652	1
2	62061	2656	1
2	62112	2660	1
2	62213	2664	1
2	62317	2668	1
2	62419	2672	1
2	62522	2676	1
2	62573	2680	1
2	62677	2684	1
2	62779	2688	1
2	62883	2692	1
2	62985	2696	1
2	63036	2700	1
2	63139	2704	1
2	63241	2708	1
2	63345	2712	1
2	63450	2716	1
2	63501	2720	1
2	63604	2724	1
2	63707	2728	1
2	63809	2732	1
2	63913	2736	1
2	63964	2740	1
2	64067	2744	1
2	64175	2748	1
2	64278	2752	1
2	64383	2756	1
2	64434	2760	1
2	64537	2764	1
2	64640	2768	1
2	64744	2772	1
2	64849	2776	1
2	64900	2780	1
2	65008	2784	1
2	65111	2788	1
2	65215	2792	1
2	65320	2796	1
2	65371	2800	1
2	65475	2804	1
2	65578	2808	1
2	65679	2812	1
2	65782	2816	1
2	65833	2820	1
2	65935	2824	1
2	66036	2828	1
2	66140	2832	1
2	66244	2836	1
2	66295	2840	1
2	66401	2844	1
2	66505	2848	1
2	66610	2852	1
2	66717	2856	1
2	66768	2860	1
2	66871	2864	1
2	66976	2868	1
2	67078	2872	1
2	67184	2876	1
2	67235	2880	1
2	67337	2884	1
2	67439	2888	1
2	67544	2892	1
2	67645	2896	1
2	67696	2900	1
2	67796	2904	1
2	67899	2908	1
2	68006	2912	1
2	68110	2916	1
2	68161	2920	1
2	68265	2924	1
2	68368	2928	1
2	68475	2932	1
2	68576	2936	1
2	68627	2940	1
2	68728	2944	1
2	68832	2948	1
2	68935	2952	1
2	69042	2956	1
2	69093	2960	1
2	69194	2964	1
2	69298	2968	1
2	69401	2972	1
2	69507	2976	1
2	69558	2980	1
2	69660	2984	1
2	69767	2988	1
2	69873	2992	1
2	69977	2996	1
2	70028	3000	1
2	70133	3004	1
2	70237	3008	1
2	70339	3012	1
2	70444	3016	1
2	70495	3020	1
2	70597	3024	1
2	70702	3028	1
2	70807	3032	1
2	70911	3036	1
2	70962	3040	1
2	71065	3044	1
2	71173	3048	1
2	71276	3052	1
2	71377	3056	1
2	71428	3060	1
2	71529	3064	1
2	71632	3068	1
2	71738	3072	1
2	71844	3076	1
2	71895	3080	1
2	71996	3084	1
2	72099	3088	1
2	72204	3092	1
2	72308	3096	1
2	72359	3100	1
2	72463	3104	1
2	72567	3108	1
2	72672	3112	1
2	72774	3116	1
2	72825	3120	1
2	72930	3124	1
2	73035	3128	1
2	73137	3132	1
2	73238	3136	1
2	73289	3140	1
2	73391	3144	1
2	73495	3148	1
2	73601	3152	1
2	73702	3156	1
2	73753	3160	1
2	73854	3164	1
2	73958	3168	1
2	74063	3172	1
2	74167	3176	1
2	74218	3180	1
2	74318	3184	1
2	74423	3188	1
2	74529	3192	1
2	74632	3196	1
2	74683	3200	1
2	74787	3204	1
2	74889	3208	1
2	74991	3212	1
2	75096	3216	1
2	75147	3220	1
2	75249	3224	1
2	75351	3228	1
2	75458	3232	1
2	75560	3236	1
2	75611	3240	1
2	75713	3244	1
2	75816	3248	1
2	75920	3252	1
2	76022	3256	1
2	76073	3260	1
2	76175	3264	1
2	76280	3268	1
2	76386	3272	1
2	76490	3276	1
2	76541	3280	1
2	76648	3284	1
2	76750	3288	1
2	76854	3292	1
2	76960	3296	1
2	77011	3300	1
2	77115	3304	1
2	77220	3308	1
2	77325	3312	1
2	77428	3316	1
2	77479	3320	1
2	77580	3324	1
2	77685	3328	1
2	77789	3332	1
2	77890	3336	1
2	77941	3340	1
2	78044	3344	1
2	78150	3348	1
2	78256	3352	1
2	78359	3356	1
2	78410	3360	1
2	78513	3364	1
2	78617	3368	1
2	78721	3372	1
2	78822	3376	1
2	78873	3380	1
2	78975	3384	1
2	79077	3388	1
2	79183	3392	1
2	79286	3396	1
2	79337	3400	1
2	79441	3404	1
2	79544	3408	1
2	79650	3412	1
2	79754	3416	1
2	79805	3420	1
2	79910	3424	1
2	80016	3428	1
2	80120	3432	1
2	80227	3436	1
2	80278	3440	1
2	80380	3444	1
2	80484	3448	1
2	80591	3452	1
2	80695	3456	1
2	80746	3460	1
2	80846	3464	1
2	80947	3468	1
2	81048	3472	1
2	81150	3476	1
2	81201	3480	1
2	81306	3484	1
2	81407	3488	1
2	81508	3492	1
2	81610	3496	1
2	81661	3500	1
2	81767	3504	1
2	81869	3508	1
2	81974	3512	1
2	82076	3516	1
2	82127	3520	1
2	82230	3524	1
2	82332	3528	1
2	82435	3532	1
2	82542	3536	1
2	82593	3540	1
2	82693	3544	1
2	82796	3548	1
2	82898	3552	1
2	83004	3556	1
2	83055	3560	1
2	83156	3564	1
2	83260	3568	1
2	83365	3572	1
2	83470	3576	1
2	83521	3580	1
2	83623	3584	1
2	83730	3588	1
2	83835	3592	1
2	83937	3596	1
2	83988	3600	1
3	4	4	1
3	134	8	1
3	251	12	1
3	353	16	1
3	404	20	1
3	515	24	1
3	626	28	1
3	738	32	1
3	849	36	1
3	900	40	1
3	1013	44	1
3	1119	48	1
3	1225	52	1
3	1338	56	1
3	1389	60	1
3	1495	64	1
3	1606	68	1
3	1712	72	1
3	1819	76	1
3	1870	80	1
3	1979	84	1
3	2083	88	1
3	2193	92	1
3	2297	96	1
3	2348	100	1
3	2450	104	1
3	2558	108	1
3	2665	112	1
3	2770	116	1
3	2821	120	1
3	2925	124	1
3	3032	128	1
3	3137	132	1
3	3245	136	1
3	3296	140	1
3	3400	144	1
3	3506	148	1
3	3613	152	1
3	3718	156	1
3	3769	160	1
3	3872	164	1
3	3973	168	1
3	4077	172	1
3	4180	176	1
3	4231	180	1
3	4334	184	1
3	4443	188	1
3	4544	192	1
3	4647	196	1
3	4698	200	1
3	4803	204	1
3	4904	208	1
3	5008	212	1
3	5114	216	1
3	5165	220	1
3	5267	224	1
3	5370	228	1
3	5479	232	1
3	5584	236	1
3	5635	240	1
3	5736	244	1
3	5843	248	1
3	5946	252	1
3	6055	256	1
3	6106	260	1
3	6206	264	1
3	6310	268	1
3	6416	272	1
3	6523	276	1
3	6574	280	1
3	6674	284	1
3	6775	288	1
3	6878	292	1
3	6982	296	1
3	7033	300	1
3	7138	304	1
3	7241	308	1
3	7342	312	1
3	7444	316	1
3	7495	320	1
3	7596	324	1
3	7700	328	1
3	7805	332	1
3	7907	336	1
3	7958	340	1
3	8061	344	1
3	8165	348	1
3	8271	352	1
3	8374	356	1
3	8425	360	1
3	8531	364	1
3	8632	368	1
3	8734	372	1
3	8838	376	1
3	8889	380	1
3	8993	384	1
3	9098	388	1
3	9206	392	1
3	9311	396	1
3	9362	400	1
3	9465	404	1
3	9571	408	1
3	9677	412	1
3	9783	416	1
3	9834	420	1
3	9941	424	1
3	10043	428	1
3	10148	432	1
3	10252	436	1
3	10303	440	1
3	10405	444	1
3	10511	448	1
3	10616	452	1
3	10721	456	1
3	10772	460	1
3	10876	464	1
3	10981	468	1
3	11087	472	1
3	11190	476	1
3	11241	480	1
3	11348	484	1
3	11453	488	1
3	11558	492	1
3	11662	496	1
3	11713	500	1
3	11816	504	1
3	11924	508	1
3	12028	512	1
3	12132	516	1
3	12183	520	1
3	12285	524	1
3	12393	528	1
3	12497	532	1
3	12603	536	1
3	12654	540	1
3	12757	544	1
3	12861	548	1
3	12964	552	1
3	13069	556	1
3	13120	560	1
3	13226	564	1
3	13328	568	1
3	13433	572	1
3	13539	576	1
3	13590	580	1
3	13693	584	1
3	13800	588	1
3	13904	592	1
3	14007	596	1
3	14058	600	1
3	14161	604	1
3	14269	608	1
3	14373	612	1
3	14477	616	1
3	14528	620	1
3	14631	624	1
3	14735	628	1
3	14842	632	1
3	14947	636	1
3	14998	640	1
3	15099	644	1
3	15207	648	1
3	15313	652	1
3	15418	656	1
3	15469	660	1
3	15574	664	1
3	15676	668	1
3	15780	672	1
3	15882	676	1
3	15933	680	1
3	16037	684	1
3	16141	688	1
3	16244	692	1
3	16348	696	1
3	16399	700	1
3	16500	704	1
3	16603	708	1
3	16707	712	1
3	16811	716	1
3	16862	720	1
3	16965	724	1
3	17071	728	1
3	17176	732	1
3	17281	736	1
3	17332	740	1
3	17436	744	1
3	17538	748	1
3	17643	752	1
3	17746	756	1
3	17797	760	1
3	17903	764	1
3	18005	768	1
3	18110	772	1
3	18216	776	1
3	18267	780	1
3	18369	784	1
3	18476	788	1
3	18579	792	1
3	18681	796	1
3	18732	800	1
3	18834	804	1
3	18939	808	1
3	19047	812	1
3	19151	816	1
3	19202	820	1
3	19302	824	1
3	19406	828	1
3	19512	832	1
3	19618	836	1
3	19669	840	1
3	19773	844	1
3	19876	848	1
3	19979	852	1
3	20082	856	1
3	20133	860	1
3	20237	864	1
3	20343	868	1
3	20447	872	1
3	20549	876	1
3	20600	880	1
3	20704	884	1
3	20806	888	1
3	20911	892	1
3	21014	896	1
3	21065	900	1
3	21170	904	1
3	21275	908	1
3	21379	912	1
3	21482	916	1
3	21533	920	1
3	21636	924	1
3	21742	928	1
3	21847	932	1
3	21952	936	1
3	22003	940	1
3	22108	944	1
3	22212	948	1
3	22318	952	1
3	22424	956	1
3	22475	960	1
3	22579	964	1
3	22684	968	1
3	22792	972	1
3	22895	976	1
3	22946	980	1
3	23049	984	1
3	23152	988	1
3	23257	992	1
3	23360	996	1
3	23411	1000	1
3	23512	1004	1
3	23616	1008	1
3	23719	1012	1
3	23829	1016	1
3	23880	1020	1
3	23982	1024	1
3	24088	1028	1
3	24192	1032	1
3	24299	1036	1
3	24350	1040	1
3	24455	1044	1
3	24559	1048	1
3	24665	1052	1
3	24770	1056	1
3	24821	1060	1
3	24927	1064	1
3	25032	1068	1
3	25137	1072	1
3	25244	1076	1
3	25295	1080	1
3	25395	1084	1
3	25497	1088	1
3	25603	1092	1
3	25709	1096	1
3	25760	1100	1
3	25862	1104	1
3	25964	1108	1
3	26067	1112	1
3	26174	1116	1
3	26225	1120	1
3	26331	1124	1
3	26433	1128	1
3	26539	1132	1
3	26641	1136	1
3	26692	1140	1
3	26793	1144	1
3	26898	1148	1
3	27001	1152	1
3	27106	1156	1
3	27157	1160	1
3	27258	1164	1
3	27361	1168	1
3	27465	1172	1
3	27570	1176	1
3	27621	1180	1
3	27722	1184	1
3	27825	1188	1
3	27930	1192	1
3	28033	1196	1
3	28084	1200	1
3	28186	1204	1
3	28289	1208	1
3	28393	1212	1
3	28497	1216	1
3	28548	1220	1
3	28649	1224	1
3	28753	1228	1
3	28854	1232	1
3	28957	1236	1
3	29008	1240	1
3	29110	1244	1
3	29212	1248	1
3	29316	1252	1
3	29420	1256	1
3	29471	1260	1
3	29574	1264	1
3	29679	1268	1
3	29783	1272	1
3	29886	1276	1
3	29937	1280	1
3	30042	1284	1
3	30146	1288	1
3	30249	1292	1
3	30351	1296	1
3	30402	1300	1
3	30504	1304	1
3	30607	1308	1
3	30712	1312	1
3	30816	1316	1
3	30867	1320	1
3	30969	1324	1
3	31074	1328	1
3	31178	1332	1
3	31286	1336	1
3	31337	1340	1
3	31437	1344	1
3	31540	1348	1
3	31643	1352	1
3	31749	1356	1
3	31800	1360	1
3	31903	1364	1
3	32006	1368	1
3	32107	1372	1
3	32210	1376	1
3	32261	1380	1
3	32364	1384	1
3	32466	1388	1
3	32568	1392	1
3	32673	1396	1
3	32724	1400	1
3	32827	1404	1
3	32929	1408	1
3	33033	1412	1
3	33137	1416	1
3	33188	1420	1
3	33291	1424	1
3	33392	1428	1
3	33497	1432	1
3	33601	1436	1
3	33652	1440	1
3	33755	1444	1
3	33856	1448	1
3	33959	1452	1
3	34066	1456	1
3	34117	1460	1
3	34219	1464	1
3	34320	1468	1
3	34423	1472	1
3	34529	1476	1
3	34580	1480	1
3	34682	1484	1
3	34785	1488	1
3	34891	1492	1
3	34996	1496	1
3	35047	1500	1
3	35152	1504	1
3	35257	1508	1
3	35362	1512	1
3	35466	1516	1
3	35517	1520	1
3	35620	1524	1
3	35726	1528	1
3	35829	1532	1
3	35932	1536	1
3	35983	1540	1
3	36087	1544	1
3	36191	1548	1
3	36295	1552	1
3	36404	1556	1
3	36455	1560	1
3	36557	1564	1
3	36660	1568	1
3	36761	1572	1
3	36864	1576	1
3	36915	1580	1
3	37020	1584	1
3	37125	1588	1
3	37230	1592	1
3	37335	1596	1
3	37386	1600	1
3	37489	1604	1
3	37591	1608	1
3	37696	1612	1
3	37800	1616	1
3	37851	1620	1
3	37954	1624	1
3	38059	1628	1
3	38163	1632	1
3	38265	1636	1
3	38316	1640	1
3	38419	1644	1
3	38525	1648	1
3	38631	1652	1
3	38734	1656	1
3	38785	1660	1
3	38891	1664	1
3	38992	1668	1
3	39094	1672	1
3	39198	1676	1
3	39249	1680	1
3	39355	1684	1
3	39458	1688	1
3	39566	1692	1
3	39667	1696	1
3	39718	1700	1
3	39821	1704	1
3	39922	1708	1
3	40024	1712	1
3	40127	1716	1
3	40178	1720	1
3	40283	1724	1
3	40387	1728	1
3	40490	1732	1
3	40594	1736	1
3	40645	1740	1
3	40750	1744	1
3	40857	1748	1
3	40962	1752	1
3	41065	1756	1
3	41116	1760	1
3	41220	1764	1
3	41323	1768	1
3	41429	1772	1
3	41533	1776	1
3	41584	1780	1
3	41690	1784	1
3	41792	1788	1
3	41897	1792	1
3	42000	1796	1
3	42051	1800	1
3	42154	1804	1
3	42258	1808	1
3	42359	1812	1
3	42461	1816	1
3	42512	1820	1
3	42618	1824	1
3	42720	1828	1
3	42823	1832	1
3	42927	1836	1
3	42978	1840	1
3	43082	1844	1
3	43185	1848	1
3	43291	1852	1
3	43395	1856	1
3	43446	1860	1
3	43552	1864	1
3	43655	1868	1
3	43758	1872	1
3	43862	1876	1
3	43913	1880	1
3	44017	1884	1
3	44121	1888	1
3	44225	1892	1
3	44331	1896	1
3	44382	1900	1
3	44486	1904	1
3	44592	1908	1
3	44697	1912	1
3	44800	1916	1
3	44851	1920	1
3	44954	1924	1
3	45057	1928	1
3	45161	1932	1
3	45265	1936	1
3	45316	1940	1
3	45420	1944	1
3	45526	1948	1
3	45631	1952	1
3	45736	1956	1
3	45787	1960	1
3	45889	1964	1
3	45994	1968	1
3	46097	1972	1
3	46201	1976	1
3	46252	1980	1
3	46355	1984	1
3	46457	1988	1
3	46563	1992	1
3	46667	1996	1
3	46718	2000	1
3	46823	2004	1
3	46927	2008	1
3	47033	2012	1
3	47136	2016	1
3	47187	2020	1
3	47292	2024	1
3	47396	2028	1
3	47503	2032	1
3	47605	2036	1
3	47656	2040	1
3	47760	2044	1
3	47863	2048	1
3	47970	2052	1
3	48073	2056	1
3	48124	2060	1
3	48225	2064	1
3	48331	2068	1
3	48436	2072	1
3	48542	2076	1
3	48593	2080	1
3	48699	2084	1
3	48801	2088	1
3	48903	2092	1
3	49010	2096	1
3	49061	2100	1
3	49163	2104	1
3	49269	2108	1
3	49373	2112	1
3	49475	2116	1
3	49526	2120	1
3	49629	2124	1
3	49737	2128	1
3	49841	2132	1
3	49942	2136	1
3	49993	2140	1
3	50095	2144	1
3	50202	2148	1
3	50305	2152	1
3	50407	2156	1
3	50458	2160	1
3	50561	2164	1
3	50668	2168	1
3	50769	2172	1
3	50872	2176	1
3	50923	2180	1
3	51027	2184	1
3	51130	2188	1
3	51232	2192	1
3	51336	2196	1
3	51387	2200	1
3	51488	2204	1
3	51592	2208	1
3	51697	2212	1
3	51804	2216	1
3	51855	2220	1
3	51961	2224	1
3	52063	2228	1
3	52168	2232	1
3	52273	2236	1
3	52324	2240	1
3	52425	2244	1
3	52527	2248	1
3	52632	2252	1
3	52737	2256	1
3	52788	2260	1
3	52891	2264	1
3	53001	2268	1
3	53104	2272	1
3	53206	2276	1
3	53257	2280	1
3	53358	2284	1
3	53461	2288	1
3	53562	2292	1
3	53668	2296	1
3	53719	2300	1
3	53820	2304	1
3	53927	2308	1
3	54028	2312	1
3	54131	2316	1
3	54182	2320	1
3	54286	2324	1
3	54389	2328	1
3	54492	2332	1
3	54599	2336	1
3	54650	2340	1
3	54754	2344	1
3	54856	2348	1
3	54960	2352	1
3	55064	2356	1
3	55115	2360	1
3	55219	2364	1
3	55326	2368	1
3	55427	2372	1
3	55529	2376	1
3	55580	2380	1
3	55685	2384	1
3	55786	2388	1
3	55889	2392	1
3	55995	2396	1
3	56046	2400	1
3	56153	2404	1
3	56255	2408	1
3	56358	2412	1
3	56462	2416	1
3	56513	2420	1
3	56617	2424	1
3	56722	2428	1
3	56826	2432	1
3	56928	2436	1
3	56979	2440	1
3	57082	2444	1
3	57187	2448	1
3	57293	2452	1
3	57395	2456	1
3	57446	2460	1
3	57551	2464	1
3	57654	2468	1
3	57759	2472	1
3	57864	2476	1
3	57915	2480	1
3	58020	2484	1
3	58125	2488	1
3	58228	2492	1
3	58332	2496	1
3	58383	2500	1
3	58486	2504	1
3	58593	2508	1
3	58696	2512	1
3	58803	2516	1
3	58854	2520	1
3	58959	2524	1
3	59061	2528	1
3	59166	2532	1
3	59270	2536	1
3	59321	2540	1
3	59424	2544	1
3	59529	2548	1
3	59632	2552	1
3	59738	2556	1
3	59789	2560	1
3	59892	2564	1
3	59999	2568	1
3	60104	2572	1
3	60206	2576	1
3	60257	2580	1
3	60360	2584	1
3	60463	2588	1
3	60569	2592	1
3	60673	2596	1
3	60724	2600	1
3	60826	2604	1
3	60932	2608	1
3	61034	2612	1
3	61140	2616	1
3	61191	2620	1
3	61292	2624	1
3	61396	2628	1
3	61499	2632	1
3	61600	2636	1
3	61651	2640	1
3	61755	2644	1
3	61859	2648	1
3	61960	2652	1
3	62062	2656	1
3	62113	2660	1
3	62214	2664	1
3	62318	2668	1
3	62420	2672	1
3	62523	2676	1
3	62574	2680	1
3	62678	2684	1
3	62780	2688	1
3	62884	2692	1
3	62986	2696	1
3	63037	2700	1
3	63140	2704	1
3	63242	2708	1
3	63346	2712	1
3	63451	2716	1
3	63502	2720	1
3	63605	2724	1
3	63708	2728	1
3	63810	2732	1
3	63914	2736	1
3	63965	2740	1
3	64068	2744	1
3	64176	2748	1
3	64279	2752	1
3	64384	2756	1
3	64435	2760	1
3	64538	2764	1
3	64641	2768	1
3	64745	2772	1
3	64850	2776	1
3	64901	2780	1
3	65009	2784	1
3	65112	2788	1
3	65216	2792	1
3	65321	2796	1
3	65372	2800	1
3	65476	2804	1
3	65579	2808	1
3	65680	2812	1
3	65783	2816	1
3	65834	2820	1
3	65936	2824	1
3	66037	2828	1
3	66141	2832	1
3	66245	2836	1
3	66296	2840	1
3	66402	2844	1
3	66506	2848	1
3	66611	2852	1
3	66718	2856	1
3	66769	2860	1
3	66872	2864	1
3	66977	2868	1
3	67079	2872	1
3	67185	2876	1
3	67236	2880	1
3	67338	2884	1
3	67440	2888	1
3	67545	2892	1
3	67646	2896	1
3	67697	2900	1
3	67797	2904	1
3	67900	2908	1
3	68007	2912	1
3	68111	2916	1
3	68162	2920	1
3	68266	2924	1
3	68369	2928	1
3	68476	2932	1
3	68577	2936	1
3	68628	2940	1
3	68729	2944	1
3	68833	2948	1
3	68936	2952	1
3	69043	2956	1
3	69094	2960	1
3	69195	2964	1
3	69299	2968	1
3	69402	2972	1
3	69508	2976	1
3	69559	2980	1
3	69661	2984	1
3	69768	2988	1
3	69874	2992	1
3	69978	2996	1
3	70029	3000	1
3	70134	3004	1
3	70238	3008	1
3	70340	3012	1
3	70445	3016	1
3	70496	3020	1
3	70598	3024	1
3	70703	3028	1
3	70808	3032	1
3	70912	3036	1
3	70963	3040	1
3	71066	3044	1
3	71174	3048	1
3	71277	3052	1
3	71378	3056	1
3	71429	3060	1
3	71530	3064	1
3	71633	3068	1
3	71739	3072	1
3	71845	3076	1
3	71896	3080	1
3	71997	3084	1
3	72100	3088	1
3	72205	3092	1
3	72309	3096	1
3	72360	3100	1
3	72464	3104	1
3	72568	3108	1
3	72673	3112	1
3	72775	3116	1
3	72826	3120	1
3	72931	3124	1
3	73036	3128	1
3	73138	3132	1
3	73239	3136	1
3	73290	3140	1
3	73392	3144	1
3	73496	3148	1
3	73602	3152	1
3	73703	3156	1
3	73754	3160	1
3	73855	3164	1
3	73959	3168	1
3	74064	3172	1
3	74168	3176	1
3	74219	3180	1
3	74319	3184	1
3	74424	3188	1
3	74530	3192	1
3	74633	3196	1
3	74684	3200	1
3	74788	3204	1
3	74890	3208	1
3	74992	3212	1
3	75097	3216	1
3	75148	3220	1
3	75250	3224	1
3	75352	3228	1
3	75459	3232	1
3	75561	3236	1
3	75612	3240	1
3	75714	3244	1
3	75817	3248	1
3	75921	3252	1
3	76023	3256	1
3	76074	3260	1
3	76176	3264	1
3	76281	3268	1
3	76387	3272	1
3	76491	3276	1
3	76542	3280	1
3	76649	3284	1
3	76751	3288	1
3	76855	3292	1
3	76961	3296	1
3	77012	3300	1
3	77116	3304	1
3	77221	3308	1
3	77326	3312	1
3	77429	3316	1
3	77480	3320	1
3	77581	3324	1
3	77686	3328	1
3	77790	3332	1
3	77891	3336	1
3	77942	3340	1
3	78045	3344	1
3	78151	3348	1
3	78257	3352	1
3	78360	3356	1
3	78411	3360	1
3	78514	3364	1
3	78618	3368	1
3	78722	3372	1
3	78823	3376	1
3	78874	3380	1
3	78976	3384	1
3	79078	3388	1
3	79184	3392	1
3	79287	3396	1
3	79338	3400	1
3	79442	3404	1
3	79545	3408	1
3	79651	3412	1
3	79755	3416	1
3	79806	3420	1
3	79911	3424	1
3	80017	3428	1
3	80121	3432	1
3	80228	3436	1
3	80279	3440	1
3	80381	3444	1
3	80485	3448	1
3	80592	3452	1
3	80696	3456	1
3	80747	3460	1
3	80847	3464	1
3	80948	3468	1
3	81049	3472	1
3	81151	3476	1
3	81202	3480	1
3	81307	3484	1
3	81408	3488	1
3	81509	3492	1
3	81611	3496	1
3	81662	3500	1
3	81768	3504	1
3	81870	3508	1
3	81975	3512	1
3	82077	3516	1
3	82128	3520	1
3	82231	3524	1
3	82333	3528	1
3	82436	3532	1
3	82543	3536	1
3	82594	3540	1
3	82694	3544	1
3	82797	3548	1
3	82899	3552	1
3	83005	3556	1
3	83056	3560	1
3	83157	3564	1
3	83261	3568	1
3	83366	3572	1
3	83471	3576	1
3	83522	3580	1
3	83624	3584	1
3	83731	3588	1
3	83836	3592	1
3	83938	3596	1
3	83989	3600	1
4	5	4	1
4	135	8	1
4	252	12	1
4	354	16	1
4	405	20	1
4	516	24	1
4	627	28	1
4	739	32	1
4	850	36	1
4	901	40	1
4	1014	44	1
4	1120	48	1
4	1226	52	1
4	1339	56	1
4	1390	60	1
4	1496	64	1
4	1607	68	1
4	1713	72	1
4	1820	76	1
4	1871	80	1
4	1980	84	1
4	2084	88	1
4	2194	92	1
4	2298	96	1
4	2349	100	1
4	2451	104	1
4	2559	108	1
4	2666	112	1
4	2771	116	1
4	2822	120	1
4	2926	124	1
4	3033	128	1
4	3138	132	1
4	3246	136	1
4	3297	140	1
4	3401	144	1
4	3507	148	1
4	3614	152	1
4	3719	156	1
4	3770	160	1
4	3873	164	1
4	3974	168	1
4	4078	172	1
4	4181	176	1
4	4232	180	1
4	4335	184	1
4	4444	188	1
4	4545	192	1
4	4648	196	1
4	4699	200	1
4	4804	204	1
4	4905	208	1
4	5009	212	1
4	5115	216	1
4	5166	220	1
4	5268	224	1
4	5371	228	1
4	5480	232	1
4	5585	236	1
4	5636	240	1
4	5737	244	1
4	5844	248	1
4	5947	252	1
4	6056	256	1
4	6107	260	1
4	6207	264	1
4	6311	268	1
4	6417	272	1
4	6524	276	1
4	6575	280	1
4	6675	284	1
4	6776	288	1
4	6879	292	1
4	6983	296	1
4	7034	300	1
4	7139	304	1
4	7242	308	1
4	7343	312	1
4	7445	316	1
4	7496	320	1
4	7597	324	1
4	7701	328	1
4	7806	332	1
4	7908	336	1
4	7959	340	1
4	8062	344	1
4	8166	348	1
4	8272	352	1
4	8375	356	1
4	8426	360	1
4	8532	364	1
4	8633	368	1
4	8735	372	1
4	8839	376	1
4	8890	380	1
4	8994	384	1
4	9099	388	1
4	9207	392	1
4	9312	396	1
4	9363	400	1
4	9466	404	1
4	9572	408	1
4	9678	412	1
4	9784	416	1
4	9835	420	1
4	9942	424	1
4	10044	428	1
4	10149	432	1
4	10253	436	1
4	10304	440	1
4	10406	444	1
4	10512	448	1
4	10617	452	1
4	10722	456	1
4	10773	460	1
4	10877	464	1
4	10982	468	1
4	11088	472	1
4	11191	476	1
4	11242	480	1
4	11349	484	1
4	11454	488	1
4	11559	492	1
4	11663	496	1
4	11714	500	1
4	11817	504	1
4	11925	508	1
4	12029	512	1
4	12133	516	1
4	12184	520	1
4	12286	524	1
4	12394	528	1
4	12498	532	1
4	12604	536	1
4	12655	540	1
4	12758	544	1
4	12862	548	1
4	12965	552	1
4	13070	556	1
4	13121	560	1
4	13227	564	1
4	13329	568	1
4	13434	572	1
4	13540	576	1
4	13591	580	1
4	13694	584	1
4	13801	588	1
4	13905	592	1
4	14008	596	1
4	14059	600	1
4	14162	604	1
4	14270	608	1
4	14374	612	1
4	14478	616	1
4	14529	620	1
4	14632	624	1
4	14736	628	1
4	14843	632	1
4	14948	636	1
4	14999	640	1
4	15100	644	1
4	15208	648	1
4	15314	652	1
4	15419	656	1
4	15470	660	1
4	15575	664	1
4	15677	668	1
4	15781	672	1
4	15883	676	1
4	15934	680	1
4	16038	684	1
4	16142	688	1
4	16245	692	1
4	16349	696	1
4	16400	700	1
4	16501	704	1
4	16604	708	1
4	16708	712	1
4	16812	716	1
4	16863	720	1
4	16966	724	1
4	17072	728	1
4	17177	732	1
4	17282	736	1
4	17333	740	1
4	17437	744	1
4	17539	748	1
4	17644	752	1
4	17747	756	1
4	17798	760	1
4	17904	764	1
4	18006	768	1
4	18111	772	1
4	18217	776	1
4	18268	780	1
4	18370	784	1
4	18477	788	1
4	18580	792	1
4	18682	796	1
4	18733	800	1
4	18835	804	1
4	18940	808	1
4	19048	812	1
4	19152	816	1
4	19203	820	1
4	19303	824	1
4	19407	828	1
4	19513	832	1
4	19619	836	1
4	19670	840	1
4	19774	844	1
4	19877	848	1
4	19980	852	1
4	20083	856	1
4	20134	860	1
4	20238	864	1
4	20344	868	1
4	20448	872	1
4	20550	876	1
4	20601	880	1
4	20705	884	1
4	20807	888	1
4	20912	892	1
4	21015	896	1
4	21066	900	1
4	21171	904	1
4	21276	908	1
4	21380	912	1
4	21483	916	1
4	21534	920	1
4	21637	924	1
4	21743	928	1
4	21848	932	1
4	21953	936	1
4	22004	940	1
4	22109	944	1
4	22213	948	1
4	22319	952	1
4	22425	956	1
4	22476	960	1
4	22580	964	1
4	22685	968	1
4	22793	972	1
4	22896	976	1
4	22947	980	1
4	23050	984	1
[...]
135	13954	595	583
135	14212	605	589
136	7543	320	1
136	13742	585	1
136	13954	595	1
136	14212	605	1
137	7751	330	1
137	8006	340	1
137	8939	380	1
137	9042	385	1
137	9621	410	1
137	34942	1495	1
137	37174	1590	1
138	7751	330	326
138	8006	340	332
138	8939	380	368
138	9042	385	369
138	9621	410	390
138	34942	1495	1163
138	37174	1590	1246
139	7751	330	1
139	8006	340	1
139	8939	380	1
139	9042	385	1
139	9621	410	1
139	34942	1495	1
139	37174	1590	1
140	8215	350	1
140	9412	400	1
140	11761	500	1
140	11865	505	1
140	12911	550	1
140	13170	560	1
140	15260	650	1
141	8215	350	346
141	9412	400	392
141	11761	500	488
141	11865	505	489
141	12911	550	530
141	13170	560	208
141	15260	650	246
142	8215	350	1
142	9412	400	1
142	11761	500	1
142	11865	505	1
142	12911	550	1
142	13170	560	1
142	15260	650	1
143	8937	380	1
143	9147	390	1
143	10665	455	1
144	8937	380	376
144	9147	390	382
144	10665	455	443
145	8937	380	1
145	9147	390	1
145	10665	455	1
146	9514	405	1
146	13377	570	1
146	13639	580	1
146	26013	1110	1
146	74010	3170	1
147	9514	405	401
147	13377	570	562
147	13639	580	568
147	26013	1110	1094
147	74010	3170	3150
148	9514	405	1
148	13377	570	1
148	13639	580	1
148	26013	1110	1
148	74010	3170	1
149	9886	420	1
149	24506	1045	1
149	31694	1355	1
149	41164	1760	1
149	41372	1770	1
149	83675	3585	1
149	84037	3600	1
150	9886	420	416
150	24506	1045	1037
150	31694	1355	1343
150	41164	1760	1744
150	41372	1770	1750
150	83675	3585	3161
150	84037	3600	2552
151	9886	420	1
151	24506	1045	1
151	31694	1355	1
151	41164	1760	1
151	41372	1770	1
151	83675	3585	1
151	84037	3600	1
152	10198	435	1
152	10454	445	1
152	14786	630	1
152	24138	1030	1
152	30450	1300	1
152	30553	1305	1
152	31229	1335	1
152	32978	1410	1
153	10198	435	431
153	10454	445	437
153	14786	630	618
153	24138	1030	1014
153	30450	1300	1280
153	30553	1305	869
153	31229	1335	887
153	32978	1410	778
154	10198	435	1
154	10454	445	1
154	14786	630	1
154	24138	1030	1
154	30450	1300	1
154	30553	1305	1
154	31229	1335	1
154	32978	1410	1
155	10456	445	1
155	13744	585	1
155	14423	615	1
155	15725	670	1
155	16088	685	1
155	17016	725	1
155	17381	740	1
156	10456	445	441
156	13744	585	577
156	14423	615	603
156	15725	670	654
156	16088	685	665
156	17016	725	277
156	17381	740	152
157	10456	445	1
157	13744	585	1
157	14423	615	1
157	15725	670	1
157	16088	685	1
157	17016	725	1
157	17381	740	1
158	12077	515	1
158	18318	780	1
158	19456	830	1
158	19561	835	1
158	19717	840	1
158	20183	860	1
158	20288	865	1
158	21687	925	1
158	22630	965	1
158	26116	1115	1
158	46302	1980	1
158	47235	2020	1
158	54701	2340	1
158	54803	2345	1
158	55628	2380	1
158	57027	2440	1
158	57131	2445	1
158	57236	2450	1
158	58645	2510	1
158	59580	2550	1
158	61341	2625	1
158	64690	2770	1
158	66346	2840	1
158	66662	2855	1
158	66923	2865	1
158	67951	2910	1
158	68987	2955	1
158	70649	3025	1
158	72149	3090	1
158	72515	3105	1
158	72617	3110	1
158	76437	3275	1
158	76590	3280	1
159	12077	515	511
159	18318	780	772
159	19456	830	818
159	19561	835	819
159	19717	840	820
159	20183	860	344
159	20288	865	81
159	21687	925	93
159	22630	965	129
159	26116	1115	271
159	46302	1980	1116
159	47235	2020	1152
159	54701	2340	1412
159	54803	2345	1377
159	55628	2380	1264
159	57027	2440	456
159	57131	2445	421
159	57236	2450	106
159	58645	2510	162
159	59580	2550	166
159	61341	2625	181
159	64690	2770	322
159	66346	2840	388
159	66662	2855	343
159	66923	2865	313
159	67951	2910	282
159	68987	2955	183
159	70649	3025	181
159	72149	3090	234
159	72515	3105	237
159	72617	3110	198
159	76437	3275	319
159	76590	3280	252
160	12077	515	1
160	18318	780	1
160	19456	830	1
160	19561	835	1
160	19717	840	1
160	20183	860	1
160	20288	865	1
160	21687	925	1
160	22630	965	1
160	26116	1115	1
160	46302	1980	1
160	47235	2020	1
160	54701	2340	1
160	54803	2345	1
160	55628	2380	1
160	57027	2440	1
160	57131	2445	1
160	57236	2450	1
160	58645	2510	1
160	59580	2550	1
160	61341	2625	1
160	64690	2770	1
160	66346	2840	1
160	66662	2855	1
160	66923	2865	1
160	67951	2910	1
160	68987	2955	1
160	70649	3025	1
160	72149	3090	1
160	72515	3105	1
160	72617	3110	1
160	76437	3275	1
160	76590	3280	1
161	12079	515	1
161	12231	520	1
161	15981	680	1
161	21115	900	1
161	22526	960	1
161	23201	990	1
161	23770	1015	1
161	24871	1060	1
161	25084	1070	1
162	12079	515	511
162	12231	520	512
162	15981	680	668
162	21115	900	884
162	22526	960	940
162	23201	990	474
162	23770	1015	491
162	24871	1060	376
162	25084	1070	166
163	12079	515	1
163	12231	520	1
163	15981	680	1
163	21115	900	1
163	22526	960	1
163	23201	990	1
163	23770	1015	1
163	24871	1060	1
163	25084	1070	1
164	12547	535	1
164	45683	1955	1
164	48382	2070	1
164	51281	2195	1
164	59681	2555	1
164	59943	2565	1
164	60512	2590	1
165	12547	535	531
165	45683	1955	1947
165	48382	2070	2058
165	51281	2195	2179
165	59681	2555	2535
165	59943	2565	2029
165	60512	2590	634
166	12547	535	1
166	45683	1955	1
166	48382	2070	1
166	51281	2195	1
166	59681	2555	1
166	59943	2565	1
166	60512	2590	1
167	13013	555	1
167	66557	2850	1
167	67489	2890	1
167	68418	2930	1
167	68778	2945	1
167	71011	3040	1
167	76904	3295	1
167	77060	3300	1
167	79856	3420	1
167	79961	3425	1
167	80170	3435	1
167	80430	3445	1
167	80534	3450	1
168	13013	555	551
168	66557	2850	2842
168	67489	2890	2878
168	68418	2930	2914
168	68778	2945	2925
168	71011	3040	2484
168	76904	3295	443
168	77060	3300	408
168	79856	3420	488
168	79961	3425	477
168	80170	3435	391
168	80430	3445	149
168	80534	3450	146
169	13013	555	1
169	66557	2850	1
169	67489	2890	1
169	68418	2930	1
169	68778	2945	1
169	71011	3040	1
169	76904	3295	1
169	77060	3300	1
169	79856	3420	1
169	79961	3425	1
169	80170	3435	1
169	80430	3445	1
169	80534	3450	1
170	13483	575	1
170	14106	600	1
170	14681	625	1
170	14784	630	1
170	16549	705	1
170	18780	800	1
170	21113	900	1
170	21325	910	1
170	22263	950	1
170	24033	1025	1
170	24243	1035	1
170	24398	1040	1
170	24610	1050	1
170	25187	1075	1
170	27410	1170	1
170	27514	1175	1
170	27771	1185	1
170	29521	1260	1
170	40073	1715	1
170	41013	1755	1
170	46506	1990	1
170	50612	2165	1
170	51746	2215	1
170	52374	2240	1
170	53305	2280	1
170	55938	2395	1
170	59474	2545	1
170	64330	2755	1
170	72046	3085	1
171	13483	575	571
171	14106	600	592
171	14681	625	613
171	14784	630	614
171	16549	705	685
171	18780	800	224
171	21113	900	296
171	21325	910	282
171	22263	950	318
171	24033	1025	317
171	24243	1035	231
171	24398	1040	136
171	24610	1050	138
171	25187	1075	123
171	27410	1170	142
171	27514	1175	139
171	27771	1185	141
171	29521	1260	208
171	40073	1715	639
171	41013	1755	583
171	46506	1990	814
171	50612	2165	977
171	51746	2215	951
171	52374	2240	524
171	53305	2280	524
171	55938	2395	403
171	59474	2545	377
171	64330	2755	539
171	72046	3085	841
172	13483	575	1
172	14106	600	1
172	14681	625	1
172	14784	630	1
172	16549	705	1
172	18780	800	1
172	21113	900	1
172	21325	910	1
172	22263	950	1
172	24033	1025	1
172	24243	1035	1
172	24398	1040	1
172	24610	1050	1
172	25187	1075	1
172	27410	1170	1
172	27514	1175	1
172	27771	1185	1
172	29521	1260	1
172	40073	1715	1
172	41013	1755	1
172	46506	1990	1
172	50612	2165	1
172	51746	2215	1
172	52374	2240	1
172	53305	2280	1
172	55938	2395	1
172	59474	2545	1
172	64330	2755	1
172	72046	3085	1
173	17587	750	1
173	18418	785	1
173	20181	860	1
173	20286	865	1
173	24241	1035	1
173	24608	1050	1
173	24714	1055	1
173	26482	1130	1
173	34472	1475	1
173	36963	1580	1
173	52576	2250	1
173	56304	2410	1
173	56563	2420	1
173	57705	2470	1
173	58537	2505	1
173	59216	2535	1
173	59837	2560	1
173	59941	2565	1
173	66190	2835	1
173	66344	2840	1
173	66451	2845	1
173	66555	2850	1
173	66660	2855	1
173	66817	2860	1
173	68985	2955	1
173	71115	3045	1
173	72410	3100	1
173	75660	3240	1
173	75763	3245	1
173	76331	3270	1
173	77271	3310	1
173	77737	3330	1
173	78203	3350	1
173	81250	3480	1
174	17587	750	746
174	18418	785	777
174	20181	860	848
174	20286	865	849
174	24241	1035	1015
174	24608	1050	298
174	24714	1055	267
174	26482	1130	266
174	34472	1475	607
174	36963	1580	544
174	52576	2250	1198
174	56304	2410	1354
174	56563	2420	1288
174	57705	2470	994
174	58537	2505	921
174	59216	2535	283
174	59837	2560	148
174	59941	2565	141
174	66190	2835	363
174	66344	2840	332
174	66451	2845	309
174	66555	2850	286
174	66660	2855	287
174	66817	2860	24
174	68985	2955	111
174	71115	3045	197
174	72410	3100	248
174	75660	3240	384
174	75763	3245	381
174	76331	3270	314
174	77271	3310	262
174	77737	3330	226
174	78203	3350	106
174	81250	3480	232
175	17587	750	1
175	18418	785	1
175	20181	860	1
175	20286	865	1
175	24241	1035	1
175	24608	1050	1
175	24714	1055	1
175	26482	1130	1
175	34472	1475	1
175	36963	1580	1
175	52576	2250	1
175	56304	2410	1
175	56563	2420	1
175	57705	2470	1
175	58537	2505	1
175	59216	2535	1
175	59837	2560	1
175	59941	2565	1
175	66190	2835	1
175	66344	2840	1
175	66451	2845	1
175	66555	2850	1
175	66660	2855	1
175	66817	2860	1
175	68985	2955	1
175	71115	3045	1
175	72410	3100	1
175	75660	3240	1
175	75763	3245	1
175	76331	3270	1
175	77271	3310	1
175	77737	3330	1
175	78203	3350	1
175	81250	3480	1
176	17847	760	1
176	20648	880	1
176	22369	955	1
176	34010	1455	1
176	35204	1505	1
176	35306	1510	1
176	76225	3265	1
176	76906	3295	1
176	78309	3355	1
176	78459	3360	1
176	79386	3400	1
176	79596	3410	1
176	81710	3500	1
176	83417	3575	1
177	17847	760	756
177	20648	880	872
177	22369	955	943
177	34010	1455	1439
177	35204	1505	1485
177	35306	1510	746
177	76225	3265	2381
177	76906	3295	2339
177	78309	3355	1899
177	78459	3360	1852
177	79386	3400	1888
177	79596	3410	142
177	81710	3500	204
177	83417	3575	219
178	17847	760	1
178	20648	880	1
178	22369	955	1
178	34010	1455	1
178	35204	1505	1
178	35306	1510	1
178	76225	3265	1
178	76906	3295	1
178	78309	3355	1
178	78459	3360	1
178	79386	3400	1
178	79596	3410	1
178	81710	3500	1
178	83417	3575	1
179	18054	770	1
179	18159	775	1
179	25546	1090	1
179	43496	1860	1
179	63291	2710	1
179	66921	2865	1
179	67949	2910	1
179	68056	2915	1
179	68210	2920	1
179	82176	3520	1
180	18054	770	766
180	18159	775	767
180	25546	1090	1078
180	43496	1860	1844
180	63291	2710	2690
180	66921	2865	2093
180	67949	2910	2134
180	68056	2915	1823
180	68210	2920	1056
180	82176	3520	808
181	18054	770	1
181	18159	775	1
181	25546	1090	1
181	43496	1860	1
181	63291	2710	1
181	66921	2865	1
181	67949	2910	1
181	68056	2915	1
181	68210	2920	1
181	82176	3520	1
182	20855	890	1
182	24031	1025	1
183	20855	890	886
183	24031	1025	1017
184	20855	890	1
184	24031	1025	1
185	21220	905	1
185	25654	1095	1
185	26275	1120	1
185	29832	1275	1
185	29985	1280	1
185	32515	1390	1
185	36031	1540	1
185	37435	1600	1
185	38364	1640	1
185	38468	1645	1
185	40693	1740	1
185	41633	1780	1
185	42203	1805	1
185	44276	1895	1
185	45471	1945	1
185	46978	2010	1
185	51641	2210	1
185	52681	2255	1
185	54337	2325	1
185	55268	2365	1
185	83206	3565	1
185	83310	3570	1
186	21220	905	901
186	25654	1095	1087
186	26275	1120	1108
186	29832	1275	1259
186	29985	1280	1260
186	32515	1390	482
186	36031	1540	444
186	37435	1600	476
186	38364	1640	364
186	38468	1645	361
186	40693	1740	348
186	41633	1780	236
186	42203	1805	201
186	44276	1895	251
186	45471	1945	297
186	46978	2010	266
186	51641	2210	426
186	52681	2255	447
186	54337	2325	429
186	55268	2365	417
186	83206	3565	1553
186	83310	3570	1358
187	21220	905	1
187	25654	1095	1
187	26275	1120	1
187	29832	1275	1
187	29985	1280	1
187	32515	1390	1
187	36031	1540	1
187	37435	1600	1
187	38364	1640	1
187	38468	1645	1
187	40693	1740	1
187	41633	1780	1
187	42203	1805	1
187	44276	1895	1
187	45471	1945	1
187	46978	2010	1
187	51641	2210	1
187	52681	2255	1
187	54337	2325	1
187	55268	2365	1
187	83206	3565	1
187	83310	3570	1
188	21896	935	1
188	22159	945	1
188	22261	950	1
188	23561	1005	1
188	23768	1015	1
188	30656	1310	1
188	37280	1595	1
188	37747	1615	1
188	38470	1645	1
188	38574	1650	1
188	39509	1690	1
188	40226	1720	1
188	43234	1850	1
188	43494	1860	1
188	69609	2980	1
188	71682	3070	1
188	72874	3120	1
188	74474	3190	1
188	74579	3195	1
188	74732	3200	1
188	74837	3205	1
188	75198	3220	1
188	75299	3225	1
188	76122	3260	1
188	76800	3290	1
188	77166	3305	1
188	78095	3345	1
189	21896	935	931
189	22159	945	937
189	22261	950	938
189	23561	1005	989
189	23768	1015	995
189	30656	1310	374
189	37280	1595	647
189	37747	1615	663
189	38470	1645	637
189	38574	1650	634
189	39509	1690	378
189	40226	1720	124
189	43234	1850	234
189	43494	1860	212
189	69609	2980	1328
189	71682	3070	1378
189	72874	3120	1396
189	74474	3190	1338
189	74579	3195	1331
189	74732	3200	216
189	74837	3205	133
189	75198	3220	96
189	75299	3225	33
189	76122	3260	64
189	76800	3290	86
189	77166	3305	97
189	78095	3345	121
190	21896	935	1
190	22159	945	1
190	22261	950	1
190	23561	1005	1
190	23768	1015	1
190	30656	1310	1
190	37280	1595	1
190	37747	1615	1
190	38470	1645	1
190	38574	1650	1
190	39509	1690	1
190	40226	1720	1
190	43234	1850	1
190	43494	1860	1
190	69609	2980	1
190	71682	3070	1
190	72874	3120	1
190	74474	3190	1
190	74579	3195	1
190	74732	3200	1
190	74837	3205	1
190	75198	3220	1
190	75299	3225	1
190	76122	3260	1
190	76800	3290	1
190	77166	3305	1
190	78095	3345	1
191	22051	940	1
191	27307	1165	1
191	27516	1175	1
191	57133	2445	1
191	57494	2460	1
191	57703	2470	1
191	58535	2505	1
191	64117	2745	1
191	64328	2755	1
192	22051	940	936
192	27307	1165	1157
192	27516	1175	1163
192	57133	2445	2429
192	57494	2460	2440
192	57703	2470	1526
192	58535	2505	1337
192	64117	2745	1569
192	64328	2755	307
193	22051	940	1
193	27307	1165	1
193	27516	1175	1
193	57133	2445	1
193	57494	2460	1
193	57703	2470	1
193	58535	2505	1
193	64117	2745	1
193	64328	2755	1
194	22735	970	1
194	22996	980	1
194	33238	1420	1
194	33702	1440	1
195	22735	970	966
195	22996	980	972
195	33238	1420	1408
195	33702	1440	1424
196	22735	970	1
196	22996	980	1
196	33238	1420	1
196	33702	1440	1
197	28442	1215	1
197	35411	1515	1
197	35670	1525	1
197	36242	1550	1
197	36344	1555	1
197	36965	1580	1
197	37640	1610	1
197	39143	1675	1
197	40541	1735	1
197	40802	1745	1
197	41270	1765	1
197	44537	1905	1
197	45366	1940	1
197	45469	1945	1
197	54438	2330	1
197	54541	2335	1
197	55270	2365	1
197	56096	2400	1
197	59110	2530	1
197	60514	2590	1
198	28442	1215	1211
198	35411	1515	1507
198	35670	1525	1513
198	36242	1550	1534
198	36344	1555	1535
198	36965	1580	364
198	37640	1610	94
198	39143	1675	147
198	40541	1735	183
198	40802	1745	189
198	41270	1765	181
198	44537	1905	293
198	45366	1940	264
198	45469	1945	209
198	54438	2330	582
198	54541	2335	567
198	55270	2365	457
198	56096	2400	456
198	59110	2530	582
198	60514	2590	258
199	28442	1215	1
199	35411	1515	1
199	35670	1525	1
199	36242	1550	1
199	36344	1555	1
199	36965	1580	1
199	37640	1610	1
199	39143	1675	1
199	40541	1735	1
199	40802	1745	1
199	41270	1765	1
199	44537	1905	1
199	45366	1940	1
199	45469	1945	1
199	54438	2330	1
199	54541	2335	1
199	55270	2365	1
199	56096	2400	1
199	59110	2530	1
199	60514	2590	1
200	30917	1320	1
200	31018	1325	1
200	31123	1330	1
200	31227	1335	1
200	34008	1455	1
200	34836	1490	1
200	36346	1555	1
200	38111	1630	1
200	42560	1820	1
201	30917	1320	1316
201	31018	1325	1317
201	31123	1330	1318
201	31227	1335	1319
201	34008	1455	1435
201	34836	1490	166
201	36346	1555	227
201	38111	1630	298
201	42560	1820	484
202	30917	1320	1
202	31018	1325	1
202	31123	1330	1
202	31227	1335	1
202	34008	1455	1
202	34836	1490	1
202	36346	1555	1
202	38111	1630	1
202	42560	1820	1
203	31692	1355	1
203	31848	1360	1
203	35778	1530	1
204	31692	1355	1351
204	31848	1360	1352
204	35778	1530	1518
205	31692	1355	1
205	31848	1360	1
205	35778	1530	1
206	34834	1490	1
206	55009	2355	1
206	55163	2360	1
206	58071	2485	1
206	58279	2495	1
206	58431	2500	1
206	60305	2580	1
206	61083	2615	1
206	68212	2920	1
206	69924	2995	1
206	70077	3000	1
206	70183	3005	1
206	72982	3125	1
207	34834	1490	1486
207	55009	2355	2347
207	55163	2360	2348
207	58071	2485	2469
207	58279	2495	2475
207	58431	2500	1008
207	60305	2580	224
207	61083	2615	251
207	68212	2920	432
207	69924	2995	499
207	70077	3000	496
207	70183	3005	421
207	72982	3125	509
208	34834	1490	1
208	55009	2355	1
208	55163	2360	1
208	58071	2485	1
208	58279	2495	1
208	58431	2500	1
208	60305	2580	1
208	61083	2615	1
208	68212	2920	1
208	69924	2995	1
208	70077	3000	1
208	70183	3005	1
208	72982	3125	1
209	40539	1735	1
209	58277	2495	1
209	60772	2600	1
209	60875	2605	1
209	63085	2700	1
209	63859	2735	1
209	64013	2740	1
209	64794	2775	1
209	64949	2780	1
209	65161	2790	1
209	65265	2795	1
209	65882	2820	1
209	69451	2975	1
209	70079	3000	1
209	71117	3045	1
209	73087	3130	1
209	80172	3435	1
210	40539	1735	1731
210	58277	2495	2487
210	60772	2600	2588
210	60875	2605	2589
210	63085	2700	2680
210	63859	2735	999
210	64013	2740	244
210	64794	2775	171
210	64949	2780	172
210	65161	2790	86
210	65265	2795	59
210	65882	2820	76
210	69451	2975	199
210	70079	3000	216
210	71117	3045	253
210	73087	3130	334
210	80172	3435	611
211	40539	1735	1
211	58277	2495	1
211	60772	2600	1
211	60875	2605	1
211	63085	2700	1
211	63859	2735	1
211	64013	2740	1
211	64794	2775	1
211	64949	2780	1
211	65161	2790	1
211	65265	2795	1
211	65882	2820	1
211	69451	2975	1
211	70079	3000	1
211	71117	3045	1
211	73087	3130	1
211	80172	3435	1
212	41841	1790	1
212	42872	1835	1
212	43962	1880	1
212	45211	1935	1
212	45364	1940	1
212	46614	1995	1
212	46875	2005	1
212	46976	2010	1
212	47704	2040	1
212	51643	2210	1
212	52942	2265	1
212	62161	2660	1
212	62367	2670	1
212	62624	2680	1
212	63551	2720	1
212	64015	2740	1
212	64589	2765	1
212	64796	2775	1
212	64951	2780	1
212	71579	3065	1
212	72254	3095	1
212	72408	3100	1
212	72513	3105	1
212	82382	3530	1
212	82485	3535	1
213	41841	1790	1786
213	42872	1835	1827
213	43962	1880	1868
213	45211	1935	1919
213	45364	1940	1920
213	46614	1995	203
213	46875	2005	169
213	46976	2010	126
213	47704	2040	104
213	51643	2210	266
213	52942	2265	269
213	62161	2660	652
213	62367	2670	658
213	62624	2680	636
213	63551	2720	508
213	64015	2740	472
213	64589	2765	101
213	64796	2775	103
213	64951	2780	96
213	71579	3065	341
213	72254	3095	351
213	72408	3100	332
213	72513	3105	329
213	82382	3530	746
213	82485	3535	467
214	41841	1790	1
214	42872	1835	1
214	43962	1880	1
214	45211	1935	1
214	45364	1940	1
214	46614	1995	1
214	46875	2005	1
214	46976	2010	1
214	47704	2040	1
214	51643	2210	1
214	52942	2265	1
214	62161	2660	1
214	62367	2670	1
214	62624	2680	1
214	63551	2720	1
214	64015	2740	1
214	64589	2765	1
214	64796	2775	1
214	64951	2780	1
214	71579	3065	1
214	72254	3095	1
214	72408	3100	1
214	72513	3105	1
214	82382	3530	1
214	82485	3535	1
215	43236	1850	1
215	47084	2015	1
215	47912	2050	1
215	48486	2075	1
215	49214	2105	1
216	43236	1850	1846
216	47084	2015	2007
216	47912	2050	2038
216	48486	2075	2059
216	49214	2105	2085
217	43236	1850	1
217	47084	2015	1
217	47912	2050	1
217	48486	2075	1
217	49214	2105	1
218	44431	1900	1
218	55165	2360	1
219	44431	1900	1896
219	55165	2360	2352
220	44431	1900	1
220	55165	2360	1
221	45938	1965	1
221	49212	2105	1
222	45938	1965	1961
222	49212	2105	2097
223	45938	1965	1
223	49212	2105	1
224	49574	2120	1
224	50506	2160	1
224	50610	2165	1
224	56407	2415	1
224	56561	2420	1
224	62622	2680	1
224	62829	2690	1
224	68420	2930	1
224	69244	2965	1
224	69453	2975	1
224	70647	3025	1
224	73904	3165	1
224	74008	3170	1
224	75041	3215	1
224	75866	3250	1
224	77630	3325	1
224	79702	3415	1
224	79854	3420	1
224	83312	3570	1
224	83415	3575	1
225	49574	2120	2116
225	50506	2160	2152
225	50610	2165	2153
225	56407	2415	2399
225	56561	2420	2400
225	62622	2680	556
225	62829	2690	526
225	68420	2930	762
225	69244	2965	549
225	69453	2975	551
225	70647	3025	341
225	73904	3165	473
225	74008	3170	238
225	75041	3215	247
225	75866	3250	274
225	77630	3325	297
225	79702	3415	247
225	79854	3420	248
225	83312	3570	354
225	83415	3575	323
226	49574	2120	1
226	50506	2160	1
226	50610	2165	1
226	56407	2415	1
226	56561	2420	1
226	62622	2680	1
226	62829	2690	1
226	68420	2930	1
226	69244	2965	1
226	69453	2975	1
226	70647	3025	1
226	73904	3165	1
226	74008	3170	1
226	75041	3215	1
226	75866	3250	1
226	77630	3325	1
226	79702	3415	1
226	79854	3420	1
226	83312	3570	1
226	83415	3575	1
227	78668	3370	1
227	79388	3400	1
227	80432	3445	1
228	78668	3370	3366
228	79388	3400	3392
228	80432	3445	3433
229	78668	3370	1
229	79388	3400	1
229	80432	3445	1
230	80066	3430	1
230	83673	3585	1
231	80066	3430	3426
231	83673	3585	3577
232	80066	3430	1
232	83673	3585	1

