version 2
run FifthVerification-0-20201214-15:22:30-220943
attr configname FifthVerification
attr datetime 20201214-15:22:30
attr experiment FifthVerification
attr inifile omnetpp.ini
attr iterationvars $0=0.2
attr iterationvarsf 0.2-
attr measurement $0=0.2
attr network slottedNetwork
attr processid 220943
attr repetition 0
attr replication #0
attr resultdir results
attr runnumber 0
attr seedset 0
param **.numTransmitters 50
param **.numChannels 2
param **.bufferSize 5
param **.sendProbability 0.2
param **.expMean 4s
param **.timeSlotSize 5s
param **.thresh 20s
param **.deterministicInterarrivalTime true
param **.numTransmitters 1
param **.numChannels 1
param **.bufferSize 5
param **.sendProbability 1
param **.expMean 5s
param **.timeSlotSize 5s
param **.thresh 20s
param **.deterministicInterarrivalTime false

vector 0 slottedNetwork.transmitters[0] numPacketCreated:vector ETV
attr source numPacketCreatedSignal
vector 1 slottedNetwork.transmitters[1] numPacketCreated:vector ETV
attr source numPacketCreatedSignal
vector 2 slottedNetwork.transmitters[2] numPacketCreated:vector ETV
attr source numPacketCreatedSignal
vector 3 slottedNetwork.transmitters[3] numPacketCreated:vector ETV
attr source numPacketCreatedSignal
vector 4 slottedNetwork.transmitters[4] numPacketCreated:vector ETV
attr source numPacketCreatedSignal
vector 5 slottedNetwork.transmitters[5] numPacketCreated:vector ETV
attr source numPacketCreatedSignal
vector 6 slottedNetwork.transmitters[6] numPacketCreated:vector ETV
attr source numPacketCreatedSignal
vector 7 slottedNetwork.transmitters[7] numPacketCreated:vector ETV
attr source numPacketCreatedSignal
vector 8 slottedNetwork.transmitters[8] numPacketCreated:vector ETV
attr source numPacketCreatedSignal
vector 9 slottedNetwork.transmitters[9] numPacketCreated:vector ETV
attr source numPacketCreatedSignal
vector 10 slottedNetwork.transmitters[10] numPacketCreated:vector ETV
attr source numPacketCreatedSignal
vector 11 slottedNetwork.transmitters[11] numPacketCreated:vector ETV
attr source numPacketCreatedSignal
vector 12 slottedNetwork.transmitters[12] numPacketCreated:vector ETV
attr source numPacketCreatedSignal
vector 13 slottedNetwork.transmitters[13] numPacketCreated:vector ETV
attr source numPacketCreatedSignal
vector 14 slottedNetwork.transmitters[14] numPacketCreated:vector ETV
attr source numPacketCreatedSignal
vector 15 slottedNetwork.transmitters[15] numPacketCreated:vector ETV
attr source numPacketCreatedSignal
vector 16 slottedNetwork.transmitters[16] numPacketCreated:vector ETV
attr source numPacketCreatedSignal
vector 17 slottedNetwork.transmitters[17] numPacketCreated:vector ETV
attr source numPacketCreatedSignal
vector 18 slottedNetwork.transmitters[18] numPacketCreated:vector ETV
attr source numPacketCreatedSignal
vector 19 slottedNetwork.transmitters[19] numPacketCreated:vector ETV
attr source numPacketCreatedSignal
vector 20 slottedNetwork.transmitters[20] numPacketCreated:vector ETV
attr source numPacketCreatedSignal
vector 21 slottedNetwork.transmitters[21] numPacketCreated:vector ETV
attr source numPacketCreatedSignal
vector 22 slottedNetwork.transmitters[22] numPacketCreated:vector ETV
attr source numPacketCreatedSignal
vector 23 slottedNetwork.transmitters[23] numPacketCreated:vector ETV
attr source numPacketCreatedSignal
vector 24 slottedNetwork.transmitters[24] numPacketCreated:vector ETV
attr source numPacketCreatedSignal
vector 25 slottedNetwork.transmitters[25] numPacketCreated:vector ETV
attr source numPacketCreatedSignal
vector 26 slottedNetwork.transmitters[26] numPacketCreated:vector ETV
attr source numPacketCreatedSignal
vector 27 slottedNetwork.transmitters[27] numPacketCreated:vector ETV
attr source numPacketCreatedSignal
vector 28 slottedNetwork.transmitters[28] numPacketCreated:vector ETV
attr source numPacketCreatedSignal
vector 29 slottedNetwork.transmitters[29] numPacketCreated:vector ETV
attr source numPacketCreatedSignal
vector 30 slottedNetwork.transmitters[30] numPacketCreated:vector ETV
attr source numPacketCreatedSignal
vector 31 slottedNetwork.transmitters[31] numPacketCreated:vector ETV
attr source numPacketCreatedSignal
vector 32 slottedNetwork.transmitters[32] numPacketCreated:vector ETV
attr source numPacketCreatedSignal
vector 33 slottedNetwork.transmitters[33] numPacketCreated:vector ETV
attr source numPacketCreatedSignal
vector 34 slottedNetwork.transmitters[34] numPacketCreated:vector ETV
attr source numPacketCreatedSignal
vector 35 slottedNetwork.transmitters[35] numPacketCreated:vector ETV
attr source numPacketCreatedSignal
vector 36 slottedNetwork.transmitters[36] numPacketCreated:vector ETV
attr source numPacketCreatedSignal
vector 37 slottedNetwork.transmitters[37] numPacketCreated:vector ETV
attr source numPacketCreatedSignal
vector 38 slottedNetwork.transmitters[38] numPacketCreated:vector ETV
attr source numPacketCreatedSignal
vector 39 slottedNetwork.transmitters[39] numPacketCreated:vector ETV
attr source numPacketCreatedSignal
vector 40 slottedNetwork.transmitters[40] numPacketCreated:vector ETV
attr source numPacketCreatedSignal
vector 41 slottedNetwork.transmitters[41] numPacketCreated:vector ETV
attr source numPacketCreatedSignal
vector 42 slottedNetwork.transmitters[42] numPacketCreated:vector ETV
attr source numPacketCreatedSignal
vector 43 slottedNetwork.transmitters[43] numPacketCreated:vector ETV
attr source numPacketCreatedSignal
vector 44 slottedNetwork.transmitters[44] numPacketCreated:vector ETV
attr source numPacketCreatedSignal
vector 45 slottedNetwork.transmitters[45] numPacketCreated:vector ETV
attr source numPacketCreatedSignal
vector 46 slottedNetwork.transmitters[46] numPacketCreated:vector ETV
attr source numPacketCreatedSignal
vector 47 slottedNetwork.transmitters[47] numPacketCreated:vector ETV
attr source numPacketCreatedSignal
vector 48 slottedNetwork.transmitters[48] numPacketCreated:vector ETV
attr source numPacketCreatedSignal
vector 49 slottedNetwork.transmitters[49] numPacketCreated:vector ETV
attr source numPacketCreatedSignal
vector 50 slottedNetwork.ch throughput:vector ETV
attr source throughputSignal
vector 51 slottedNetwork.receivers[35] numPacketReceived:vector ETV
attr source numPacketReceivedSignal
vector 52 slottedNetwork.receivers[35] responseTime:vector ETV
attr source responseTimeSignal
vector 53 slottedNetwork.receivers[35] threshold:vector ETV
attr source thresholdSignal
vector 54 slottedNetwork.transmitters[0] numPacketDiscarded:vector ETV
attr source numPacketDiscardedSignal
vector 55 slottedNetwork.transmitters[1] numPacketDiscarded:vector ETV
attr source numPacketDiscardedSignal
vector 56 slottedNetwork.transmitters[2] numPacketDiscarded:vector ETV
attr source numPacketDiscardedSignal
vector 57 slottedNetwork.transmitters[3] numPacketDiscarded:vector ETV
attr source numPacketDiscardedSignal
vector 58 slottedNetwork.transmitters[4] numPacketDiscarded:vector ETV
attr source numPacketDiscardedSignal
vector 59 slottedNetwork.transmitters[5] numPacketDiscarded:vector ETV
attr source numPacketDiscardedSignal
vector 60 slottedNetwork.transmitters[6] numPacketDiscarded:vector ETV
attr source numPacketDiscardedSignal
vector 61 slottedNetwork.transmitters[7] numPacketDiscarded:vector ETV
attr source numPacketDiscardedSignal
vector 62 slottedNetwork.transmitters[8] numPacketDiscarded:vector ETV
attr source numPacketDiscardedSignal
vector 63 slottedNetwork.transmitters[9] numPacketDiscarded:vector ETV
attr source numPacketDiscardedSignal
vector 64 slottedNetwork.transmitters[10] numPacketDiscarded:vector ETV
attr source numPacketDiscardedSignal
vector 65 slottedNetwork.transmitters[11] numPacketDiscarded:vector ETV
attr source numPacketDiscardedSignal
vector 66 slottedNetwork.transmitters[12] numPacketDiscarded:vector ETV
attr source numPacketDiscardedSignal
vector 67 slottedNetwork.transmitters[13] numPacketDiscarded:vector ETV
attr source numPacketDiscardedSignal
vector 68 slottedNetwork.transmitters[14] numPacketDiscarded:vector ETV
attr source numPacketDiscardedSignal
vector 69 slottedNetwork.transmitters[15] numPacketDiscarded:vector ETV
attr source numPacketDiscardedSignal
vector 70 slottedNetwork.transmitters[16] numPacketDiscarded:vector ETV
attr source numPacketDiscardedSignal
vector 71 slottedNetwork.transmitters[17] numPacketDiscarded:vector ETV
attr source numPacketDiscardedSignal
vector 72 slottedNetwork.transmitters[18] numPacketDiscarded:vector ETV
attr source numPacketDiscardedSignal
vector 73 slottedNetwork.transmitters[19] numPacketDiscarded:vector ETV
attr source numPacketDiscardedSignal
vector 74 slottedNetwork.transmitters[20] numPacketDiscarded:vector ETV
attr source numPacketDiscardedSignal
vector 75 slottedNetwork.transmitters[21] numPacketDiscarded:vector ETV
attr source numPacketDiscardedSignal
vector 76 slottedNetwork.transmitters[22] numPacketDiscarded:vector ETV
attr source numPacketDiscardedSignal
vector 77 slottedNetwork.transmitters[23] numPacketDiscarded:vector ETV
attr source numPacketDiscardedSignal
vector 78 slottedNetwork.transmitters[24] numPacketDiscarded:vector ETV
attr source numPacketDiscardedSignal
vector 79 slottedNetwork.transmitters[25] numPacketDiscarded:vector ETV
attr source numPacketDiscardedSignal
vector 80 slottedNetwork.transmitters[26] numPacketDiscarded:vector ETV
attr source numPacketDiscardedSignal
vector 81 slottedNetwork.transmitters[27] numPacketDiscarded:vector ETV
attr source numPacketDiscardedSignal
vector 82 slottedNetwork.transmitters[28] numPacketDiscarded:vector ETV
attr source numPacketDiscardedSignal
vector 83 slottedNetwork.transmitters[29] numPacketDiscarded:vector ETV
attr source numPacketDiscardedSignal
vector 84 slottedNetwork.transmitters[30] numPacketDiscarded:vector ETV
attr source numPacketDiscardedSignal
vector 85 slottedNetwork.transmitters[31] numPacketDiscarded:vector ETV
attr source numPacketDiscardedSignal
vector 86 slottedNetwork.transmitters[32] numPacketDiscarded:vector ETV
attr source numPacketDiscardedSignal
vector 87 slottedNetwork.transmitters[33] numPacketDiscarded:vector ETV
attr source numPacketDiscardedSignal
vector 88 slottedNetwork.transmitters[34] numPacketDiscarded:vector ETV
attr source numPacketDiscardedSignal
vector 89 slottedNetwork.transmitters[36] numPacketDiscarded:vector ETV
attr source numPacketDiscardedSignal
vector 90 slottedNetwork.transmitters[37] numPacketDiscarded:vector ETV
attr source numPacketDiscardedSignal
vector 91 slottedNetwork.transmitters[38] numPacketDiscarded:vector ETV
attr source numPacketDiscardedSignal
vector 92 slottedNetwork.transmitters[39] numPacketDiscarded:vector ETV
attr source numPacketDiscardedSignal
vector 93 slottedNetwork.transmitters[40] numPacketDiscarded:vector ETV
attr source numPacketDiscardedSignal
vector 94 slottedNetwork.transmitters[41] numPacketDiscarded:vector ETV
attr source numPacketDiscardedSignal
vector 95 slottedNetwork.transmitters[42] numPacketDiscarded:vector ETV
attr source numPacketDiscardedSignal
vector 96 slottedNetwork.transmitters[43] numPacketDiscarded:vector ETV
attr source numPacketDiscardedSignal
vector 97 slottedNetwork.transmitters[44] numPacketDiscarded:vector ETV
attr source numPacketDiscardedSignal
vector 98 slottedNetwork.transmitters[45] numPacketDiscarded:vector ETV
attr source numPacketDiscardedSignal
vector 99 slottedNetwork.transmitters[46] numPacketDiscarded:vector ETV
attr source numPacketDiscardedSignal
vector 100 slottedNetwork.transmitters[47] numPacketDiscarded:vector ETV
attr source numPacketDiscardedSignal
vector 101 slottedNetwork.transmitters[48] numPacketDiscarded:vector ETV
attr source numPacketDiscardedSignal
vector 102 slottedNetwork.transmitters[49] numPacketDiscarded:vector ETV
attr source numPacketDiscardedSignal
vector 103 slottedNetwork.transmitters[35] numPacketDiscarded:vector ETV
attr source numPacketDiscardedSignal
vector 104 slottedNetwork.receivers[10] numPacketReceived:vector ETV
attr source numPacketReceivedSignal
vector 105 slottedNetwork.receivers[10] responseTime:vector ETV
attr source responseTimeSignal
vector 106 slottedNetwork.receivers[10] threshold:vector ETV
attr source thresholdSignal
vector 107 slottedNetwork.receivers[37] numPacketReceived:vector ETV
attr source numPacketReceivedSignal
vector 108 slottedNetwork.receivers[37] responseTime:vector ETV
attr source responseTimeSignal
vector 109 slottedNetwork.receivers[37] threshold:vector ETV
attr source thresholdSignal
vector 110 slottedNetwork.receivers[23] numPacketReceived:vector ETV
attr source numPacketReceivedSignal
vector 111 slottedNetwork.receivers[23] responseTime:vector ETV
attr source responseTimeSignal
vector 112 slottedNetwork.receivers[23] threshold:vector ETV
attr source thresholdSignal
vector 113 slottedNetwork.receivers[5] numPacketReceived:vector ETV
attr source numPacketReceivedSignal
vector 114 slottedNetwork.receivers[5] responseTime:vector ETV
attr source responseTimeSignal
vector 115 slottedNetwork.receivers[5] threshold:vector ETV
attr source thresholdSignal
vector 116 slottedNetwork.receivers[48] numPacketReceived:vector ETV
attr source numPacketReceivedSignal
vector 117 slottedNetwork.receivers[48] responseTime:vector ETV
attr source responseTimeSignal
vector 118 slottedNetwork.receivers[48] threshold:vector ETV
attr source thresholdSignal
vector 119 slottedNetwork.receivers[49] numPacketReceived:vector ETV
attr source numPacketReceivedSignal
vector 120 slottedNetwork.receivers[49] responseTime:vector ETV
attr source responseTimeSignal
vector 121 slottedNetwork.receivers[49] threshold:vector ETV
attr source thresholdSignal
vector 122 slottedNetwork.receivers[19] numPacketReceived:vector ETV
attr source numPacketReceivedSignal
vector 123 slottedNetwork.receivers[19] responseTime:vector ETV
attr source responseTimeSignal
vector 124 slottedNetwork.receivers[19] threshold:vector ETV
attr source thresholdSignal
vector 125 slottedNetwork.receivers[41] numPacketReceived:vector ETV
attr source numPacketReceivedSignal
vector 126 slottedNetwork.receivers[41] responseTime:vector ETV
attr source responseTimeSignal
vector 127 slottedNetwork.receivers[41] threshold:vector ETV
attr source thresholdSignal
vector 128 slottedNetwork.receivers[3] numPacketReceived:vector ETV
attr source numPacketReceivedSignal
vector 129 slottedNetwork.receivers[3] responseTime:vector ETV
attr source responseTimeSignal
vector 130 slottedNetwork.receivers[3] threshold:vector ETV
attr source thresholdSignal
vector 131 slottedNetwork.receivers[43] numPacketReceived:vector ETV
attr source numPacketReceivedSignal
vector 132 slottedNetwork.receivers[43] responseTime:vector ETV
attr source responseTimeSignal
vector 133 slottedNetwork.receivers[43] threshold:vector ETV
attr source thresholdSignal
vector 134 slottedNetwork.receivers[17] numPacketReceived:vector ETV
attr source numPacketReceivedSignal
vector 135 slottedNetwork.receivers[17] responseTime:vector ETV
attr source responseTimeSignal
vector 136 slottedNetwork.receivers[17] threshold:vector ETV
attr source thresholdSignal
vector 137 slottedNetwork.receivers[30] numPacketReceived:vector ETV
attr source numPacketReceivedSignal
vector 138 slottedNetwork.receivers[30] responseTime:vector ETV
attr source responseTimeSignal
vector 139 slottedNetwork.receivers[30] threshold:vector ETV
attr source thresholdSignal
vector 140 slottedNetwork.receivers[38] numPacketReceived:vector ETV
attr source numPacketReceivedSignal
vector 141 slottedNetwork.receivers[38] responseTime:vector ETV
attr source responseTimeSignal
vector 142 slottedNetwork.receivers[38] threshold:vector ETV
attr source thresholdSignal
vector 143 slottedNetwork.receivers[32] numPacketReceived:vector ETV
attr source numPacketReceivedSignal
vector 144 slottedNetwork.receivers[32] responseTime:vector ETV
attr source responseTimeSignal
vector 145 slottedNetwork.receivers[32] threshold:vector ETV
attr source thresholdSignal
vector 146 slottedNetwork.receivers[2] numPacketReceived:vector ETV
attr source numPacketReceivedSignal
vector 147 slottedNetwork.receivers[2] responseTime:vector ETV
attr source responseTimeSignal
vector 148 slottedNetwork.receivers[2] threshold:vector ETV
attr source thresholdSignal
vector 149 slottedNetwork.receivers[16] numPacketReceived:vector ETV
attr source numPacketReceivedSignal
vector 150 slottedNetwork.receivers[16] responseTime:vector ETV
attr source responseTimeSignal
vector 151 slottedNetwork.receivers[16] threshold:vector ETV
attr source thresholdSignal
vector 152 slottedNetwork.receivers[40] numPacketReceived:vector ETV
attr source numPacketReceivedSignal
vector 153 slottedNetwork.receivers[40] responseTime:vector ETV
attr source responseTimeSignal
vector 154 slottedNetwork.receivers[40] threshold:vector ETV
attr source thresholdSignal
vector 155 slottedNetwork.receivers[12] numPacketReceived:vector ETV
attr source numPacketReceivedSignal
vector 156 slottedNetwork.receivers[12] responseTime:vector ETV
attr source responseTimeSignal
vector 157 slottedNetwork.receivers[12] threshold:vector ETV
attr source thresholdSignal
vector 158 slottedNetwork.receivers[13] numPacketReceived:vector ETV
attr source numPacketReceivedSignal
vector 159 slottedNetwork.receivers[13] responseTime:vector ETV
attr source responseTimeSignal
vector 160 slottedNetwork.receivers[13] threshold:vector ETV
attr source thresholdSignal
vector 161 slottedNetwork.receivers[25] numPacketReceived:vector ETV
attr source numPacketReceivedSignal
vector 162 slottedNetwork.receivers[25] responseTime:vector ETV
attr source responseTimeSignal
vector 163 slottedNetwork.receivers[25] threshold:vector ETV
attr source thresholdSignal
vector 164 slottedNetwork.receivers[11] numPacketReceived:vector ETV
attr source numPacketReceivedSignal
vector 165 slottedNetwork.receivers[11] responseTime:vector ETV
attr source responseTimeSignal
vector 166 slottedNetwork.receivers[11] threshold:vector ETV
attr source thresholdSignal
vector 167 slottedNetwork.receivers[45] numPacketReceived:vector ETV
attr source numPacketReceivedSignal
vector 168 slottedNetwork.receivers[45] responseTime:vector ETV
attr source responseTimeSignal
vector 169 slottedNetwork.receivers[45] threshold:vector ETV
attr source thresholdSignal
vector 170 slottedNetwork.receivers[42] numPacketReceived:vector ETV
attr source numPacketReceivedSignal
vector 171 slottedNetwork.receivers[42] responseTime:vector ETV
attr source responseTimeSignal
vector 172 slottedNetwork.receivers[42] threshold:vector ETV
attr source thresholdSignal
vector 173 slottedNetwork.receivers[29] numPacketReceived:vector ETV
attr source numPacketReceivedSignal
vector 174 slottedNetwork.receivers[29] responseTime:vector ETV
attr source responseTimeSignal
vector 175 slottedNetwork.receivers[29] threshold:vector ETV
attr source thresholdSignal
vector 176 slottedNetwork.receivers[7] numPacketReceived:vector ETV
attr source numPacketReceivedSignal
vector 177 slottedNetwork.receivers[7] responseTime:vector ETV
attr source responseTimeSignal
vector 178 slottedNetwork.receivers[7] threshold:vector ETV
attr source thresholdSignal
vector 179 slottedNetwork.receivers[20] numPacketReceived:vector ETV
attr source numPacketReceivedSignal
vector 180 slottedNetwork.receivers[20] responseTime:vector ETV
attr source responseTimeSignal
vector 181 slottedNetwork.receivers[20] threshold:vector ETV
attr source thresholdSignal
vector 182 slottedNetwork.receivers[44] numPacketReceived:vector ETV
attr source numPacketReceivedSignal
vector 183 slottedNetwork.receivers[44] responseTime:vector ETV
attr source responseTimeSignal
vector 184 slottedNetwork.receivers[44] threshold:vector ETV
attr source thresholdSignal
vector 185 slottedNetwork.receivers[24] numPacketReceived:vector ETV
attr source numPacketReceivedSignal
vector 186 slottedNetwork.receivers[24] responseTime:vector ETV
attr source responseTimeSignal
vector 187 slottedNetwork.receivers[24] threshold:vector ETV
attr source thresholdSignal
vector 188 slottedNetwork.receivers[9] numPacketReceived:vector ETV
attr source numPacketReceivedSignal
vector 189 slottedNetwork.receivers[9] responseTime:vector ETV
attr source responseTimeSignal
vector 190 slottedNetwork.receivers[9] threshold:vector ETV
attr source thresholdSignal
vector 191 slottedNetwork.receivers[26] numPacketReceived:vector ETV
attr source numPacketReceivedSignal
vector 192 slottedNetwork.receivers[26] responseTime:vector ETV
attr source responseTimeSignal
vector 193 slottedNetwork.receivers[26] threshold:vector ETV
attr source thresholdSignal
vector 194 slottedNetwork.receivers[6] numPacketReceived:vector ETV
attr source numPacketReceivedSignal
vector 195 slottedNetwork.receivers[6] responseTime:vector ETV
attr source responseTimeSignal
vector 196 slottedNetwork.receivers[6] threshold:vector ETV
attr source thresholdSignal
vector 197 slottedNetwork.receivers[27] numPacketReceived:vector ETV
attr source numPacketReceivedSignal
vector 198 slottedNetwork.receivers[27] responseTime:vector ETV
attr source responseTimeSignal
vector 199 slottedNetwork.receivers[27] threshold:vector ETV
attr source thresholdSignal
vector 200 slottedNetwork.receivers[33] numPacketReceived:vector ETV
attr source numPacketReceivedSignal
vector 201 slottedNetwork.receivers[33] responseTime:vector ETV
attr source responseTimeSignal
vector 202 slottedNetwork.receivers[33] threshold:vector ETV
attr source thresholdSignal
vector 203 slottedNetwork.receivers[0] numPacketReceived:vector ETV
attr source numPacketReceivedSignal
vector 204 slottedNetwork.receivers[0] responseTime:vector ETV
attr source responseTimeSignal
vector 205 slottedNetwork.receivers[0] threshold:vector ETV
attr source thresholdSignal
vector 206 slottedNetwork.receivers[47] numPacketReceived:vector ETV
attr source numPacketReceivedSignal
vector 207 slottedNetwork.receivers[47] responseTime:vector ETV
attr source responseTimeSignal
vector 208 slottedNetwork.receivers[47] threshold:vector ETV
attr source thresholdSignal
vector 209 slottedNetwork.receivers[46] numPacketReceived:vector ETV
attr source numPacketReceivedSignal
vector 210 slottedNetwork.receivers[46] responseTime:vector ETV
attr source responseTimeSignal
vector 211 slottedNetwork.receivers[46] threshold:vector ETV
attr source thresholdSignal
vector 212 slottedNetwork.receivers[36] numPacketReceived:vector ETV
attr source numPacketReceivedSignal
vector 213 slottedNetwork.receivers[36] responseTime:vector ETV
attr source responseTimeSignal
vector 214 slottedNetwork.receivers[36] threshold:vector ETV
attr source thresholdSignal
vector 215 slottedNetwork.receivers[18] numPacketReceived:vector ETV
attr source numPacketReceivedSignal
vector 216 slottedNetwork.receivers[18] responseTime:vector ETV
attr source responseTimeSignal
vector 217 slottedNetwork.receivers[18] threshold:vector ETV
attr source thresholdSignal
vector 218 slottedNetwork.receivers[8] numPacketReceived:vector ETV
attr source numPacketReceivedSignal
vector 219 slottedNetwork.receivers[8] responseTime:vector ETV
attr source responseTimeSignal
vector 220 slottedNetwork.receivers[8] threshold:vector ETV
attr source thresholdSignal
vector 221 slottedNetwork.receivers[21] numPacketReceived:vector ETV
attr source numPacketReceivedSignal
vector 222 slottedNetwork.receivers[21] responseTime:vector ETV
attr source responseTimeSignal
vector 223 slottedNetwork.receivers[21] threshold:vector ETV
attr source thresholdSignal
vector 224 slottedNetwork.receivers[39] numPacketReceived:vector ETV
attr source numPacketReceivedSignal
vector 225 slottedNetwork.receivers[39] responseTime:vector ETV
attr source responseTimeSignal
vector 226 slottedNetwork.receivers[39] threshold:vector ETV
attr source thresholdSignal
vector 227 slottedNetwork.receivers[4] numPacketReceived:vector ETV
attr source numPacketReceivedSignal
vector 228 slottedNetwork.receivers[4] responseTime:vector ETV
attr source responseTimeSignal
vector 229 slottedNetwork.receivers[4] threshold:vector ETV
attr source thresholdSignal
0	1	4	1
0	115	8	1
0	217	12	1
0	330	16	1
0	381	20	1
0	490	24	1
0	596	28	1
0	705	32	1
0	810	36	1
0	861	40	1
0	965	44	1
0	1073	48	1
0	1180	52	1
0	1288	56	1
0	1339	60	1
0	1446	64	1
0	1552	68	1
0	1661	72	1
0	1767	76	1
0	1818	80	1
0	1921	84	1
0	2026	88	1
0	2132	92	1
0	2240	96	1
0	2291	100	1
0	2395	104	1
0	2503	108	1
0	2611	112	1
0	2715	116	1
0	2766	120	1
0	2876	124	1
0	2981	128	1
0	3086	132	1
0	3192	136	1
0	3243	140	1
0	3350	144	1
0	3454	148	1
0	3557	152	1
0	3661	156	1
0	3712	160	1
0	3816	164	1
0	3919	168	1
0	4023	172	1
0	4132	176	1
0	4183	180	1
0	4286	184	1
0	4391	188	1
0	4499	192	1
0	4608	196	1
0	4659	200	1
0	4761	204	1
0	4869	208	1
0	4973	212	1
0	5080	216	1
0	5131	220	1
0	5233	224	1
0	5336	228	1
0	5442	232	1
0	5549	236	1
0	5600	240	1
0	5703	244	1
0	5807	248	1
0	5911	252	1
0	6018	256	1
0	6069	260	1
0	6175	264	1
0	6281	268	1
0	6384	272	1
0	6488	276	1
0	6539	280	1
0	6641	284	1
0	6744	288	1
0	6852	292	1
0	6957	296	1
0	7008	300	1
0	7110	304	1
0	7213	308	1
0	7323	312	1
0	7427	316	1
0	7478	320	1
0	7583	324	1
0	7688	328	1
0	7790	332	1
0	7894	336	1
0	7945	340	1
0	8050	344	1
0	8155	348	1
0	8261	352	1
0	8366	356	1
0	8417	360	1
0	8519	364	1
0	8625	368	1
0	8727	372	1
0	8835	376	1
0	8886	380	1
0	8989	384	1
0	9093	388	1
0	9199	392	1
0	9301	396	1
0	9352	400	1
0	9455	404	1
0	9561	408	1
0	9666	412	1
0	9769	416	1
0	9820	420	1
0	9923	424	1
0	10026	428	1
0	10130	432	1
0	10232	436	1
0	10283	440	1
0	10386	444	1
0	10491	448	1
0	10594	452	1
0	10700	456	1
0	10751	460	1
0	10854	464	1
0	10959	468	1
0	11062	472	1
0	11167	476	1
0	11218	480	1
0	11324	484	1
0	11428	488	1
0	11532	492	1
0	11637	496	1
0	11688	500	1
0	11792	504	1
0	11896	508	1
0	12002	512	1
0	12104	516	1
0	12155	520	1
0	12258	524	1
0	12366	528	1
0	12472	532	1
0	12575	536	1
0	12626	540	1
0	12733	544	1
0	12837	548	1
0	12941	552	1
0	13045	556	1
0	13096	560	1
0	13197	564	1
0	13303	568	1
0	13407	572	1
0	13512	576	1
0	13563	580	1
0	13667	584	1
0	13770	588	1
0	13876	592	1
0	13980	596	1
0	14031	600	1
0	14132	604	1
0	14236	608	1
0	14342	612	1
0	14449	616	1
0	14500	620	1
0	14601	624	1
0	14708	628	1
0	14814	632	1
0	14918	636	1
0	14969	640	1
0	15072	644	1
0	15176	648	1
0	15280	652	1
0	15381	656	1
0	15432	660	1
0	15536	664	1
0	15639	668	1
0	15742	672	1
0	15847	676	1
0	15898	680	1
0	16000	684	1
0	16102	688	1
0	16209	692	1
0	16317	696	1
0	16368	700	1
0	16468	704	1
0	16570	708	1
0	16672	712	1
0	16776	716	1
0	16827	720	1
0	16930	724	1
0	17036	728	1
0	17141	732	1
0	17246	736	1
0	17297	740	1
0	17401	744	1
0	17508	748	1
0	17611	752	1
0	17714	756	1
0	17765	760	1
0	17866	764	1
0	17969	768	1
0	18074	772	1
0	18180	776	1
0	18231	780	1
0	18336	784	1
0	18440	788	1
0	18545	792	1
0	18647	796	1
0	18698	800	1
0	18801	804	1
0	18906	808	1
0	19015	812	1
0	19118	816	1
0	19169	820	1
0	19274	824	1
0	19380	828	1
0	19486	832	1
0	19587	836	1
0	19638	840	1
0	19739	844	1
0	19842	848	1
0	19946	852	1
0	20055	856	1
0	20106	860	1
0	20211	864	1
0	20317	868	1
0	20422	872	1
0	20526	876	1
0	20577	880	1
0	20679	884	1
0	20785	888	1
0	20892	892	1
0	20995	896	1
0	21046	900	1
0	21150	904	1
0	21254	908	1
0	21360	912	1
0	21464	916	1
0	21515	920	1
0	21619	924	1
0	21722	928	1
0	21828	932	1
0	21933	936	1
0	21984	940	1
0	22087	944	1
0	22188	948	1
0	22289	952	1
0	22393	956	1
0	22444	960	1
0	22547	964	1
0	22652	968	1
0	22756	972	1
0	22860	976	1
0	22911	980	1
0	23013	984	1
0	23119	988	1
0	23226	992	1
0	23333	996	1
0	23384	1000	1
0	23489	1004	1
0	23590	1008	1
0	23695	1012	1
0	23798	1016	1
0	23849	1020	1
0	23955	1024	1
0	24057	1028	1
0	24163	1032	1
0	24269	1036	1
0	24320	1040	1
0	24423	1044	1
0	24530	1048	1
0	24634	1052	1
0	24735	1056	1
0	24786	1060	1
0	24888	1064	1
0	24994	1068	1
0	25099	1072	1
0	25202	1076	1
0	25253	1080	1
0	25358	1084	1
0	25464	1088	1
0	25569	1092	1
0	25672	1096	1
0	25723	1100	1
0	25829	1104	1
0	25932	1108	1
0	26037	1112	1
0	26142	1116	1
0	26193	1120	1
0	26297	1124	1
0	26402	1128	1
0	26507	1132	1
0	26613	1136	1
0	26664	1140	1
0	26767	1144	1
0	26874	1148	1
0	26979	1152	1
0	27081	1156	1
0	27132	1160	1
0	27235	1164	1
0	27338	1168	1
0	27445	1172	1
0	27550	1176	1
0	27601	1180	1
0	27703	1184	1
0	27804	1188	1
0	27909	1192	1
0	28015	1196	1
0	28066	1200	1
0	28169	1204	1
0	28278	1208	1
0	28384	1212	1
0	28486	1216	1
0	28537	1220	1
0	28640	1224	1
0	28743	1228	1
0	28846	1232	1
0	28948	1236	1
0	28999	1240	1
0	29105	1244	1
0	29211	1248	1
0	29314	1252	1
0	29418	1256	1
0	29469	1260	1
0	29575	1264	1
0	29680	1268	1
0	29784	1272	1
0	29890	1276	1
0	29941	1280	1
0	30046	1284	1
0	30150	1288	1
0	30256	1292	1
0	30360	1296	1
0	30411	1300	1
0	30513	1304	1
0	30620	1308	1
0	30724	1312	1
0	30827	1316	1
0	30878	1320	1
0	30983	1324	1
0	31086	1328	1
0	31190	1332	1
0	31294	1336	1
0	31345	1340	1
0	31449	1344	1
0	31553	1348	1
0	31655	1352	1
0	31758	1356	1
0	31809	1360	1
0	31914	1364	1
0	32019	1368	1
0	32122	1372	1
0	32226	1376	1
0	32277	1380	1
0	32384	1384	1
0	32487	1388	1
0	32592	1392	1
0	32696	1396	1
0	32747	1400	1
0	32849	1404	1
0	32952	1408	1
0	33057	1412	1
0	33163	1416	1
0	33214	1420	1
0	33319	1424	1
0	33421	1428	1
0	33523	1432	1
0	33627	1436	1
0	33678	1440	1
0	33785	1444	1
0	33889	1448	1
0	33992	1452	1
0	34096	1456	1
0	34147	1460	1
0	34253	1464	1
0	34359	1468	1
0	34464	1472	1
0	34567	1476	1
0	34618	1480	1
0	34721	1484	1
0	34823	1488	1
0	34926	1492	1
0	35031	1496	1
0	35082	1500	1
0	35186	1504	1
0	35288	1508	1
0	35390	1512	1
0	35496	1516	1
0	35547	1520	1
0	35650	1524	1
0	35754	1528	1
0	35859	1532	1
0	35967	1536	1
0	36018	1540	1
0	36119	1544	1
0	36224	1548	1
0	36331	1552	1
0	36436	1556	1
0	36487	1560	1
0	36589	1564	1
0	36693	1568	1
0	36798	1572	1
0	36902	1576	1
0	36953	1580	1
0	37057	1584	1
0	37161	1588	1
0	37264	1592	1
0	37368	1596	1
0	37419	1600	1
0	37526	1604	1
0	37632	1608	1
0	37735	1612	1
0	37842	1616	1
0	37893	1620	1
0	37994	1624	1
0	38095	1628	1
0	38196	1632	1
0	38300	1636	1
0	38351	1640	1
0	38453	1644	1
0	38555	1648	1
0	38657	1652	1
0	38758	1656	1
0	38809	1660	1
0	38911	1664	1
0	39018	1668	1
0	39122	1672	1
0	39226	1676	1
0	39277	1680	1
0	39381	1684	1
0	39486	1688	1
0	39592	1692	1
0	39693	1696	1
0	39744	1700	1
0	39845	1704	1
0	39949	1708	1
0	40056	1712	1
0	40159	1716	1
0	40210	1720	1
0	40313	1724	1
0	40418	1728	1
0	40523	1732	1
0	40625	1736	1
0	40676	1740	1
0	40779	1744	1
0	40885	1748	1
0	40990	1752	1
0	41094	1756	1
0	41145	1760	1
0	41247	1764	1
0	41350	1768	1
0	41454	1772	1
0	41558	1776	1
0	41609	1780	1
0	41713	1784	1
0	41814	1788	1
0	41915	1792	1
0	42017	1796	1
0	42068	1800	1
0	42170	1804	1
0	42277	1808	1
0	42383	1812	1
0	42486	1816	1
0	42537	1820	1
0	42638	1824	1
0	42740	1828	1
0	42844	1832	1
0	42948	1836	1
0	42999	1840	1
0	43103	1844	1
0	43206	1848	1
0	43312	1852	1
0	43419	1856	1
0	43470	1860	1
0	43573	1864	1
0	43677	1868	1
0	43783	1872	1
0	43885	1876	1
0	43936	1880	1
0	44037	1884	1
0	44140	1888	1
0	44246	1892	1
0	44353	1896	1
0	44404	1900	1
0	44504	1904	1
0	44605	1908	1
0	44708	1912	1
0	44814	1916	1
0	44865	1920	1
0	44967	1924	1
0	45072	1928	1
0	45175	1932	1
0	45278	1936	1
0	45329	1940	1
0	45433	1944	1
0	45538	1948	1
0	45643	1952	1
0	45746	1956	1
0	45797	1960	1
0	45902	1964	1
0	46005	1968	1
0	46109	1972	1
0	46212	1976	1
0	46263	1980	1
0	46366	1984	1
0	46472	1988	1
0	46575	1992	1
0	46682	1996	1
0	46733	2000	1
0	46836	2004	1
0	46938	2008	1
0	47042	2012	1
0	47144	2016	1
0	47195	2020	1
0	47296	2024	1
0	47398	2028	1
0	47501	2032	1
0	47604	2036	1
0	47655	2040	1
0	47759	2044	1
0	47865	2048	1
0	47969	2052	1
0	48070	2056	1
0	48121	2060	1
0	48223	2064	1
0	48329	2068	1
0	48432	2072	1
0	48538	2076	1
0	48589	2080	1
0	48694	2084	1
0	48797	2088	1
0	48905	2092	1
0	49008	2096	1
0	49059	2100	1
0	49160	2104	1
0	49263	2108	1
0	49368	2112	1
0	49471	2116	1
0	49522	2120	1
0	49626	2124	1
0	49729	2128	1
0	49833	2132	1
0	49940	2136	1
0	49991	2140	1
0	50094	2144	1
0	50197	2148	1
0	50301	2152	1
0	50407	2156	1
0	50458	2160	1
0	50559	2164	1
0	50664	2168	1
0	50768	2172	1
0	50872	2176	1
0	50923	2180	1
0	51025	2184	1
0	51130	2188	1
0	51232	2192	1
0	51337	2196	1
0	51388	2200	1
0	51491	2204	1
0	51597	2208	1
0	51700	2212	1
0	51804	2216	1
0	51855	2220	1
0	51960	2224	1
0	52066	2228	1
0	52170	2232	1
0	52273	2236	1
0	52324	2240	1
0	52429	2244	1
0	52534	2248	1
0	52639	2252	1
0	52742	2256	1
0	52793	2260	1
0	52897	2264	1
0	53000	2268	1
0	53107	2272	1
0	53211	2276	1
0	53262	2280	1
0	53366	2284	1
0	53470	2288	1
0	53576	2292	1
0	53679	2296	1
0	53730	2300	1
0	53836	2304	1
0	53941	2308	1
0	54042	2312	1
0	54146	2316	1
0	54197	2320	1
0	54298	2324	1
0	54401	2328	1
0	54505	2332	1
0	54608	2336	1
0	54659	2340	1
0	54764	2344	1
0	54867	2348	1
0	54974	2352	1
0	55078	2356	1
0	55129	2360	1
0	55231	2364	1
0	55333	2368	1
0	55436	2372	1
0	55538	2376	1
0	55589	2380	1
0	55691	2384	1
0	55794	2388	1
0	55897	2392	1
0	55999	2396	1
0	56050	2400	1
0	56154	2404	1
0	56261	2408	1
0	56364	2412	1
0	56469	2416	1
0	56520	2420	1
0	56624	2424	1
0	56729	2428	1
0	56835	2432	1
0	56943	2436	1
0	56994	2440	1
0	57096	2444	1
0	57198	2448	1
0	57303	2452	1
0	57408	2456	1
0	57459	2460	1
0	57564	2464	1
0	57669	2468	1
0	57773	2472	1
0	57875	2476	1
0	57926	2480	1
0	58031	2484	1
0	58139	2488	1
0	58241	2492	1
0	58345	2496	1
0	58396	2500	1
0	58499	2504	1
0	58601	2508	1
0	58704	2512	1
0	58813	2516	1
0	58864	2520	1
0	58966	2524	1
0	59073	2528	1
0	59175	2532	1
0	59277	2536	1
0	59328	2540	1
0	59430	2544	1
0	59538	2548	1
0	59641	2552	1
0	59745	2556	1
0	59796	2560	1
0	59899	2564	1
0	60002	2568	1
0	60105	2572	1
0	60208	2576	1
0	60259	2580	1
0	60361	2584	1
0	60462	2588	1
0	60564	2592	1
0	60668	2596	1
0	60719	2600	1
0	60822	2604	1
0	60925	2608	1
0	61030	2612	1
0	61134	2616	1
0	61185	2620	1
0	61290	2624	1
0	61395	2628	1
0	61499	2632	1
0	61602	2636	1
0	61653	2640	1
0	61755	2644	1
0	61861	2648	1
0	61965	2652	1
0	62069	2656	1
0	62120	2660	1
0	62222	2664	1
0	62325	2668	1
0	62427	2672	1
0	62530	2676	1
0	62581	2680	1
0	62689	2684	1
0	62794	2688	1
0	62897	2692	1
0	62999	2696	1
0	63050	2700	1
0	63151	2704	1
0	63255	2708	1
0	63360	2712	1
0	63465	2716	1
0	63516	2720	1
0	63619	2724	1
0	63724	2728	1
0	63829	2732	1
0	63933	2736	1
0	63984	2740	1
0	64090	2744	1
0	64192	2748	1
0	64295	2752	1
0	64400	2756	1
0	64451	2760	1
0	64552	2764	1
0	64656	2768	1
0	64764	2772	1
0	64869	2776	1
0	64920	2780	1
0	65020	2784	1
0	65123	2788	1
0	65225	2792	1
0	65331	2796	1
0	65382	2800	1
0	65485	2804	1
0	65588	2808	1
0	65695	2812	1
0	65799	2816	1
0	65850	2820	1
0	65952	2824	1
0	66057	2828	1
0	66162	2832	1
0	66263	2836	1
0	66314	2840	1
0	66417	2844	1
0	66520	2848	1
0	66624	2852	1
0	66726	2856	1
0	66777	2860	1
0	66879	2864	1
0	66983	2868	1
0	67087	2872	1
0	67191	2876	1
0	67242	2880	1
0	67347	2884	1
0	67449	2888	1
0	67553	2892	1
0	67659	2896	1
0	67710	2900	1
0	67812	2904	1
0	67914	2908	1
0	68018	2912	1
0	68123	2916	1
0	68174	2920	1
0	68278	2924	1
0	68381	2928	1
0	68485	2932	1
0	68588	2936	1
0	68639	2940	1
0	68744	2944	1
0	68848	2948	1
0	68951	2952	1
0	69054	2956	1
0	69105	2960	1
0	69211	2964	1
0	69315	2968	1
0	69421	2972	1
0	69523	2976	1
0	69574	2980	1
0	69675	2984	1
0	69777	2988	1
0	69879	2992	1
0	69983	2996	1
0	70034	3000	1
0	70137	3004	1
0	70244	3008	1
0	70347	3012	1
0	70451	3016	1
0	70502	3020	1
0	70609	3024	1
0	70713	3028	1
0	70817	3032	1
0	70924	3036	1
0	70975	3040	1
0	71076	3044	1
0	71182	3048	1
0	71286	3052	1
0	71392	3056	1
0	71443	3060	1
0	71545	3064	1
0	71648	3068	1
0	71751	3072	1
0	71853	3076	1
0	71904	3080	1
0	72006	3084	1
0	72110	3088	1
0	72217	3092	1
0	72321	3096	1
0	72372	3100	1
0	72475	3104	1
0	72577	3108	1
0	72681	3112	1
0	72786	3116	1
0	72837	3120	1
0	72938	3124	1
0	73042	3128	1
0	73146	3132	1
0	73249	3136	1
0	73300	3140	1
0	73402	3144	1
0	73507	3148	1
0	73609	3152	1
0	73713	3156	1
0	73764	3160	1
0	73867	3164	1
0	73970	3168	1
0	74073	3172	1
0	74174	3176	1
0	74225	3180	1
0	74327	3184	1
0	74431	3188	1
0	74534	3192	1
0	74641	3196	1
0	74692	3200	1
0	74794	3204	1
0	74897	3208	1
0	75001	3212	1
0	75104	3216	1
0	75155	3220	1
0	75259	3224	1
0	75365	3228	1
0	75468	3232	1
0	75572	3236	1
0	75623	3240	1
0	75723	3244	1
0	75824	3248	1
0	75926	3252	1
0	76032	3256	1
0	76083	3260	1
0	76185	3264	1
0	76287	3268	1
0	76390	3272	1
0	76493	3276	1
0	76544	3280	1
0	76647	3284	1
0	76752	3288	1
0	76854	3292	1
0	76957	3296	1
0	77008	3300	1
0	77112	3304	1
0	77216	3308	1
0	77322	3312	1
0	77425	3316	1
0	77476	3320	1
0	77577	3324	1
0	77681	3328	1
0	77785	3332	1
0	77889	3336	1
0	77940	3340	1
0	78045	3344	1
0	78147	3348	1
0	78249	3352	1
0	78352	3356	1
0	78403	3360	1
0	78506	3364	1
0	78611	3368	1
0	78713	3372	1
0	78817	3376	1
0	78868	3380	1
0	78969	3384	1
0	79072	3388	1
0	79174	3392	1
0	79276	3396	1
0	79327	3400	1
0	79430	3404	1
0	79534	3408	1
0	79639	3412	1
0	79741	3416	1
0	79792	3420	1
0	79894	3424	1
0	80002	3428	1
0	80103	3432	1
0	80205	3436	1
0	80256	3440	1
0	80358	3444	1
0	80462	3448	1
0	80563	3452	1
0	80665	3456	1
0	80716	3460	1
0	80818	3464	1
0	80921	3468	1
0	81025	3472	1
0	81130	3476	1
0	81181	3480	1
0	81281	3484	1
0	81383	3488	1
0	81490	3492	1
0	81592	3496	1
0	81643	3500	1
0	81746	3504	1
0	81847	3508	1
0	81949	3512	1
0	82053	3516	1
0	82104	3520	1
0	82208	3524	1
0	82312	3528	1
0	82417	3532	1
0	82521	3536	1
0	82572	3540	1
0	82677	3544	1
0	82780	3548	1
0	82885	3552	1
0	82987	3556	1
0	83038	3560	1
0	83140	3564	1
0	83244	3568	1
0	83348	3572	1
0	83454	3576	1
0	83505	3580	1
0	83606	3584	1
0	83712	3588	1
0	83816	3592	1
0	83922	3596	1
0	83973	3600	1
1	2	4	1
1	116	8	1
1	218	12	1
1	331	16	1
1	382	20	1
1	491	24	1
1	597	28	1
1	706	32	1
1	811	36	1
1	862	40	1
1	966	44	1
1	1074	48	1
1	1181	52	1
1	1289	56	1
1	1340	60	1
1	1447	64	1
1	1553	68	1
1	1662	72	1
1	1768	76	1
1	1819	80	1
1	1922	84	1
1	2027	88	1
1	2133	92	1
1	2241	96	1
1	2292	100	1
1	2396	104	1
1	2504	108	1
1	2612	112	1
1	2716	116	1
1	2767	120	1
1	2877	124	1
1	2982	128	1
1	3087	132	1
1	3193	136	1
1	3244	140	1
1	3351	144	1
1	3455	148	1
1	3558	152	1
1	3662	156	1
1	3713	160	1
1	3817	164	1
1	3920	168	1
1	4024	172	1
1	4133	176	1
1	4184	180	1
1	4287	184	1
1	4392	188	1
1	4500	192	1
1	4609	196	1
1	4660	200	1
1	4762	204	1
1	4870	208	1
1	4974	212	1
1	5081	216	1
1	5132	220	1
1	5234	224	1
1	5337	228	1
1	5443	232	1
1	5550	236	1
1	5601	240	1
1	5704	244	1
1	5808	248	1
1	5912	252	1
1	6019	256	1
1	6070	260	1
1	6176	264	1
1	6282	268	1
1	6385	272	1
1	6489	276	1
1	6540	280	1
1	6642	284	1
1	6745	288	1
1	6853	292	1
1	6958	296	1
1	7009	300	1
1	7111	304	1
1	7214	308	1
1	7324	312	1
1	7428	316	1
1	7479	320	1
1	7584	324	1
1	7689	328	1
1	7791	332	1
1	7895	336	1
1	7946	340	1
1	8051	344	1
1	8156	348	1
1	8262	352	1
1	8367	356	1
1	8418	360	1
1	8520	364	1
1	8626	368	1
1	8728	372	1
1	8836	376	1
1	8887	380	1
1	8990	384	1
1	9094	388	1
1	9200	392	1
1	9302	396	1
1	9353	400	1
1	9456	404	1
1	9562	408	1
1	9667	412	1
1	9770	416	1
1	9821	420	1
1	9924	424	1
1	10027	428	1
1	10131	432	1
1	10233	436	1
1	10284	440	1
1	10387	444	1
1	10492	448	1
1	10595	452	1
1	10701	456	1
1	10752	460	1
1	10855	464	1
1	10960	468	1
1	11063	472	1
1	11168	476	1
1	11219	480	1
1	11325	484	1
1	11429	488	1
1	11533	492	1
1	11638	496	1
1	11689	500	1
1	11793	504	1
1	11897	508	1
1	12003	512	1
1	12105	516	1
1	12156	520	1
1	12259	524	1
1	12367	528	1
1	12473	532	1
1	12576	536	1
1	12627	540	1
1	12734	544	1
1	12838	548	1
1	12942	552	1
1	13046	556	1
1	13097	560	1
1	13198	564	1
1	13304	568	1
1	13408	572	1
1	13513	576	1
1	13564	580	1
1	13668	584	1
1	13771	588	1
1	13877	592	1
1	13981	596	1
1	14032	600	1
1	14133	604	1
1	14237	608	1
1	14343	612	1
1	14450	616	1
1	14501	620	1
1	14602	624	1
1	14709	628	1
1	14815	632	1
1	14919	636	1
1	14970	640	1
1	15073	644	1
1	15177	648	1
1	15281	652	1
1	15382	656	1
1	15433	660	1
1	15537	664	1
1	15640	668	1
1	15743	672	1
1	15848	676	1
1	15899	680	1
1	16001	684	1
1	16103	688	1
1	16210	692	1
1	16318	696	1
1	16369	700	1
1	16469	704	1
1	16571	708	1
1	16673	712	1
1	16777	716	1
1	16828	720	1
1	16931	724	1
1	17037	728	1
1	17142	732	1
1	17247	736	1
1	17298	740	1
1	17402	744	1
1	17509	748	1
1	17612	752	1
1	17715	756	1
1	17766	760	1
1	17867	764	1
1	17970	768	1
1	18075	772	1
1	18181	776	1
1	18232	780	1
1	18337	784	1
1	18441	788	1
1	18546	792	1
1	18648	796	1
1	18699	800	1
1	18802	804	1
1	18907	808	1
1	19016	812	1
1	19119	816	1
1	19170	820	1
1	19275	824	1
1	19381	828	1
1	19487	832	1
1	19588	836	1
1	19639	840	1
1	19740	844	1
1	19843	848	1
1	19947	852	1
1	20056	856	1
1	20107	860	1
1	20212	864	1
1	20318	868	1
1	20423	872	1
1	20527	876	1
1	20578	880	1
1	20680	884	1
1	20786	888	1
1	20893	892	1
1	20996	896	1
1	21047	900	1
1	21151	904	1
1	21255	908	1
1	21361	912	1
1	21465	916	1
1	21516	920	1
1	21620	924	1
1	21723	928	1
1	21829	932	1
1	21934	936	1
1	21985	940	1
1	22088	944	1
1	22189	948	1
1	22290	952	1
1	22394	956	1
1	22445	960	1
1	22548	964	1
1	22653	968	1
1	22757	972	1
1	22861	976	1
1	22912	980	1
1	23014	984	1
1	23120	988	1
1	23227	992	1
1	23334	996	1
1	23385	1000	1
1	23490	1004	1
1	23591	1008	1
1	23696	1012	1
1	23799	1016	1
1	23850	1020	1
1	23956	1024	1
1	24058	1028	1
1	24164	1032	1
1	24270	1036	1
1	24321	1040	1
1	24424	1044	1
1	24531	1048	1
1	24635	1052	1
1	24736	1056	1
1	24787	1060	1
1	24889	1064	1
1	24995	1068	1
1	25100	1072	1
1	25203	1076	1
1	25254	1080	1
1	25359	1084	1
1	25465	1088	1
1	25570	1092	1
1	25673	1096	1
1	25724	1100	1
1	25830	1104	1
1	25933	1108	1
1	26038	1112	1
1	26143	1116	1
1	26194	1120	1
1	26298	1124	1
1	26403	1128	1
1	26508	1132	1
1	26614	1136	1
1	26665	1140	1
1	26768	1144	1
1	26875	1148	1
1	26980	1152	1
1	27082	1156	1
1	27133	1160	1
1	27236	1164	1
1	27339	1168	1
1	27446	1172	1
1	27551	1176	1
1	27602	1180	1
1	27704	1184	1
1	27805	1188	1
1	27910	1192	1
1	28016	1196	1
1	28067	1200	1
1	28170	1204	1
1	28279	1208	1
1	28385	1212	1
1	28487	1216	1
1	28538	1220	1
1	28641	1224	1
1	28744	1228	1
1	28847	1232	1
1	28949	1236	1
1	29000	1240	1
1	29106	1244	1
1	29212	1248	1
1	29315	1252	1
1	29419	1256	1
1	29470	1260	1
1	29576	1264	1
1	29681	1268	1
1	29785	1272	1
1	29891	1276	1
1	29942	1280	1
1	30047	1284	1
1	30151	1288	1
1	30257	1292	1
1	30361	1296	1
1	30412	1300	1
1	30514	1304	1
1	30621	1308	1
1	30725	1312	1
1	30828	1316	1
1	30879	1320	1
1	30984	1324	1
1	31087	1328	1
1	31191	1332	1
1	31295	1336	1
1	31346	1340	1
1	31450	1344	1
1	31554	1348	1
1	31656	1352	1
1	31759	1356	1
1	31810	1360	1
1	31915	1364	1
1	32020	1368	1
1	32123	1372	1
1	32227	1376	1
1	32278	1380	1
1	32385	1384	1
1	32488	1388	1
1	32593	1392	1
1	32697	1396	1
1	32748	1400	1
1	32850	1404	1
1	32953	1408	1
1	33058	1412	1
1	33164	1416	1
1	33215	1420	1
1	33320	1424	1
1	33422	1428	1
1	33524	1432	1
1	33628	1436	1
1	33679	1440	1
1	33786	1444	1
1	33890	1448	1
1	33993	1452	1
1	34097	1456	1
1	34148	1460	1
1	34254	1464	1
1	34360	1468	1
1	34465	1472	1
1	34568	1476	1
1	34619	1480	1
1	34722	1484	1
1	34824	1488	1
1	34927	1492	1
1	35032	1496	1
1	35083	1500	1
1	35187	1504	1
1	35289	1508	1
1	35391	1512	1
1	35497	1516	1
1	35548	1520	1
1	35651	1524	1
1	35755	1528	1
1	35860	1532	1
1	35968	1536	1
1	36019	1540	1
1	36120	1544	1
1	36225	1548	1
1	36332	1552	1
1	36437	1556	1
1	36488	1560	1
1	36590	1564	1
1	36694	1568	1
1	36799	1572	1
1	36903	1576	1
1	36954	1580	1
1	37058	1584	1
1	37162	1588	1
1	37265	1592	1
1	37369	1596	1
1	37420	1600	1
1	37527	1604	1
1	37633	1608	1
1	37736	1612	1
1	37843	1616	1
1	37894	1620	1
1	37995	1624	1
1	38096	1628	1
1	38197	1632	1
1	38301	1636	1
1	38352	1640	1
1	38454	1644	1
1	38556	1648	1
1	38658	1652	1
1	38759	1656	1
1	38810	1660	1
1	38912	1664	1
1	39019	1668	1
1	39123	1672	1
1	39227	1676	1
1	39278	1680	1
1	39382	1684	1
1	39487	1688	1
1	39593	1692	1
1	39694	1696	1
1	39745	1700	1
1	39846	1704	1
1	39950	1708	1
1	40057	1712	1
1	40160	1716	1
1	40211	1720	1
1	40314	1724	1
1	40419	1728	1
1	40524	1732	1
1	40626	1736	1
1	40677	1740	1
1	40780	1744	1
1	40886	1748	1
1	40991	1752	1
1	41095	1756	1
1	41146	1760	1
1	41248	1764	1
1	41351	1768	1
1	41455	1772	1
1	41559	1776	1
1	41610	1780	1
1	41714	1784	1
1	41815	1788	1
1	41916	1792	1
1	42018	1796	1
1	42069	1800	1
1	42171	1804	1
1	42278	1808	1
1	42384	1812	1
1	42487	1816	1
1	42538	1820	1
1	42639	1824	1
1	42741	1828	1
1	42845	1832	1
1	42949	1836	1
1	43000	1840	1
1	43104	1844	1
1	43207	1848	1
1	43313	1852	1
1	43420	1856	1
1	43471	1860	1
1	43574	1864	1
1	43678	1868	1
1	43784	1872	1
1	43886	1876	1
1	43937	1880	1
1	44038	1884	1
1	44141	1888	1
1	44247	1892	1
1	44354	1896	1
1	44405	1900	1
1	44505	1904	1
1	44606	1908	1
1	44709	1912	1
1	44815	1916	1
1	44866	1920	1
1	44968	1924	1
1	45073	1928	1
1	45176	1932	1
1	45279	1936	1
1	45330	1940	1
1	45434	1944	1
1	45539	1948	1
1	45644	1952	1
1	45747	1956	1
1	45798	1960	1
1	45903	1964	1
1	46006	1968	1
1	46110	1972	1
1	46213	1976	1
1	46264	1980	1
1	46367	1984	1
1	46473	1988	1
1	46576	1992	1
1	46683	1996	1
1	46734	2000	1
1	46837	2004	1
1	46939	2008	1
1	47043	2012	1
1	47145	2016	1
1	47196	2020	1
1	47297	2024	1
1	47399	2028	1
1	47502	2032	1
1	47605	2036	1
1	47656	2040	1
1	47760	2044	1
1	47866	2048	1
1	47970	2052	1
1	48071	2056	1
1	48122	2060	1
1	48224	2064	1
1	48330	2068	1
1	48433	2072	1
1	48539	2076	1
1	48590	2080	1
1	48695	2084	1
1	48798	2088	1
1	48906	2092	1
1	49009	2096	1
1	49060	2100	1
1	49161	2104	1
1	49264	2108	1
1	49369	2112	1
1	49472	2116	1
1	49523	2120	1
1	49627	2124	1
1	49730	2128	1
1	49834	2132	1
1	49941	2136	1
1	49992	2140	1
1	50095	2144	1
1	50198	2148	1
1	50302	2152	1
1	50408	2156	1
1	50459	2160	1
1	50560	2164	1
1	50665	2168	1
1	50769	2172	1
1	50873	2176	1
1	50924	2180	1
1	51026	2184	1
1	51131	2188	1
1	51233	2192	1
1	51338	2196	1
1	51389	2200	1
1	51492	2204	1
1	51598	2208	1
1	51701	2212	1
1	51805	2216	1
1	51856	2220	1
1	51961	2224	1
1	52067	2228	1
1	52171	2232	1
1	52274	2236	1
1	52325	2240	1
1	52430	2244	1
1	52535	2248	1
1	52640	2252	1
1	52743	2256	1
1	52794	2260	1
1	52898	2264	1
1	53001	2268	1
1	53108	2272	1
1	53212	2276	1
1	53263	2280	1
1	53367	2284	1
1	53471	2288	1
1	53577	2292	1
1	53680	2296	1
1	53731	2300	1
1	53837	2304	1
1	53942	2308	1
1	54043	2312	1
1	54147	2316	1
1	54198	2320	1
1	54299	2324	1
1	54402	2328	1
1	54506	2332	1
1	54609	2336	1
1	54660	2340	1
1	54765	2344	1
1	54868	2348	1
1	54975	2352	1
1	55079	2356	1
1	55130	2360	1
1	55232	2364	1
1	55334	2368	1
1	55437	2372	1
1	55539	2376	1
1	55590	2380	1
1	55692	2384	1
1	55795	2388	1
1	55898	2392	1
1	56000	2396	1
1	56051	2400	1
1	56155	2404	1
1	56262	2408	1
1	56365	2412	1
1	56470	2416	1
1	56521	2420	1
1	56625	2424	1
1	56730	2428	1
1	56836	2432	1
1	56944	2436	1
1	56995	2440	1
1	57097	2444	1
1	57199	2448	1
1	57304	2452	1
1	57409	2456	1
1	57460	2460	1
1	57565	2464	1
1	57670	2468	1
1	57774	2472	1
1	57876	2476	1
1	57927	2480	1
1	58032	2484	1
1	58140	2488	1
1	58242	2492	1
1	58346	2496	1
1	58397	2500	1
1	58500	2504	1
1	58602	2508	1
1	58705	2512	1
1	58814	2516	1
1	58865	2520	1
1	58967	2524	1
1	59074	2528	1
1	59176	2532	1
1	59278	2536	1
1	59329	2540	1
1	59431	2544	1
1	59539	2548	1
1	59642	2552	1
1	59746	2556	1
1	59797	2560	1
1	59900	2564	1
1	60003	2568	1
1	60106	2572	1
1	60209	2576	1
1	60260	2580	1
1	60362	2584	1
1	60463	2588	1
1	60565	2592	1
1	60669	2596	1
1	60720	2600	1
1	60823	2604	1
1	60926	2608	1
1	61031	2612	1
1	61135	2616	1
1	61186	2620	1
1	61291	2624	1
1	61396	2628	1
1	61500	2632	1
1	61603	2636	1
1	61654	2640	1
1	61756	2644	1
1	61862	2648	1
1	61966	2652	1
1	62070	2656	1
1	62121	2660	1
1	62223	2664	1
1	62326	2668	1
1	62428	2672	1
1	62531	2676	1
1	62582	2680	1
1	62690	2684	1
1	62795	2688	1
1	62898	2692	1
1	63000	2696	1
1	63051	2700	1
1	63152	2704	1
1	63256	2708	1
1	63361	2712	1
1	63466	2716	1
1	63517	2720	1
1	63620	2724	1
1	63725	2728	1
1	63830	2732	1
1	63934	2736	1
1	63985	2740	1
1	64091	2744	1
1	64193	2748	1
1	64296	2752	1
1	64401	2756	1
1	64452	2760	1
1	64553	2764	1
1	64657	2768	1
1	64765	2772	1
1	64870	2776	1
1	64921	2780	1
1	65021	2784	1
1	65124	2788	1
1	65226	2792	1
1	65332	2796	1
1	65383	2800	1
1	65486	2804	1
1	65589	2808	1
1	65696	2812	1
1	65800	2816	1
1	65851	2820	1
1	65953	2824	1
1	66058	2828	1
1	66163	2832	1
1	66264	2836	1
1	66315	2840	1
1	66418	2844	1
1	66521	2848	1
1	66625	2852	1
1	66727	2856	1
1	66778	2860	1
1	66880	2864	1
1	66984	2868	1
1	67088	2872	1
1	67192	2876	1
1	67243	2880	1
1	67348	2884	1
1	67450	2888	1
1	67554	2892	1
1	67660	2896	1
1	67711	2900	1
1	67813	2904	1
1	67915	2908	1
1	68019	2912	1
1	68124	2916	1
1	68175	2920	1
1	68279	2924	1
1	68382	2928	1
1	68486	2932	1
1	68589	2936	1
1	68640	2940	1
1	68745	2944	1
1	68849	2948	1
1	68952	2952	1
1	69055	2956	1
1	69106	2960	1
1	69212	2964	1
1	69316	2968	1
1	69422	2972	1
1	69524	2976	1
1	69575	2980	1
1	69676	2984	1
1	69778	2988	1
1	69880	2992	1
1	69984	2996	1
1	70035	3000	1
1	70138	3004	1
1	70245	3008	1
1	70348	3012	1
1	70452	3016	1
1	70503	3020	1
1	70610	3024	1
1	70714	3028	1
1	70818	3032	1
1	70925	3036	1
1	70976	3040	1
1	71077	3044	1
1	71183	3048	1
1	71287	3052	1
1	71393	3056	1
1	71444	3060	1
1	71546	3064	1
1	71649	3068	1
1	71752	3072	1
1	71854	3076	1
1	71905	3080	1
1	72007	3084	1
1	72111	3088	1
1	72218	3092	1
1	72322	3096	1
1	72373	3100	1
1	72476	3104	1
1	72578	3108	1
1	72682	3112	1
1	72787	3116	1
1	72838	3120	1
1	72939	3124	1
1	73043	3128	1
1	73147	3132	1
1	73250	3136	1
1	73301	3140	1
1	73403	3144	1
1	73508	3148	1
1	73610	3152	1
1	73714	3156	1
1	73765	3160	1
1	73868	3164	1
1	73971	3168	1
1	74074	3172	1
1	74175	3176	1
1	74226	3180	1
1	74328	3184	1
1	74432	3188	1
1	74535	3192	1
1	74642	3196	1
1	74693	3200	1
1	74795	3204	1
1	74898	3208	1
1	75002	3212	1
1	75105	3216	1
1	75156	3220	1
1	75260	3224	1
1	75366	3228	1
1	75469	3232	1
1	75573	3236	1
1	75624	3240	1
1	75724	3244	1
1	75825	3248	1
1	75927	3252	1
1	76033	3256	1
1	76084	3260	1
1	76186	3264	1
1	76288	3268	1
1	76391	3272	1
1	76494	3276	1
1	76545	3280	1
1	76648	3284	1
1	76753	3288	1
1	76855	3292	1
1	76958	3296	1
1	77009	3300	1
1	77113	3304	1
1	77217	3308	1
1	77323	3312	1
1	77426	3316	1
1	77477	3320	1
1	77578	3324	1
1	77682	3328	1
1	77786	3332	1
1	77890	3336	1
1	77941	3340	1
1	78046	3344	1
1	78148	3348	1
1	78250	3352	1
1	78353	3356	1
1	78404	3360	1
1	78507	3364	1
1	78612	3368	1
1	78714	3372	1
1	78818	3376	1
1	78869	3380	1
1	78970	3384	1
1	79073	3388	1
1	79175	3392	1
1	79277	3396	1
1	79328	3400	1
1	79431	3404	1
1	79535	3408	1
1	79640	3412	1
1	79742	3416	1
1	79793	3420	1
1	79895	3424	1
1	80003	3428	1
1	80104	3432	1
1	80206	3436	1
1	80257	3440	1
1	80359	3444	1
1	80463	3448	1
1	80564	3452	1
1	80666	3456	1
1	80717	3460	1
1	80819	3464	1
1	80922	3468	1
1	81026	3472	1
1	81131	3476	1
1	81182	3480	1
1	81282	3484	1
1	81384	3488	1
1	81491	3492	1
1	81593	3496	1
1	81644	3500	1
1	81747	3504	1
1	81848	3508	1
1	81950	3512	1
1	82054	3516	1
1	82105	3520	1
1	82209	3524	1
1	82313	3528	1
1	82418	3532	1
1	82522	3536	1
1	82573	3540	1
1	82678	3544	1
1	82781	3548	1
1	82886	3552	1
1	82988	3556	1
1	83039	3560	1
1	83141	3564	1
1	83245	3568	1
1	83349	3572	1
1	83455	3576	1
1	83506	3580	1
1	83607	3584	1
1	83713	3588	1
1	83817	3592	1
1	83923	3596	1
1	83974	3600	1
2	3	4	1
2	117	8	1
2	219	12	1
2	332	16	1
2	383	20	1
2	492	24	1
2	598	28	1
2	707	32	1
2	812	36	1
2	863	40	1
2	967	44	1
2	1075	48	1
2	1182	52	1
2	1290	56	1
2	1341	60	1
2	1448	64	1
2	1554	68	1
2	1663	72	1
2	1769	76	1
2	1820	80	1
2	1923	84	1
2	2028	88	1
2	2134	92	1
2	2242	96	1
2	2293	100	1
2	2397	104	1
2	2505	108	1
2	2613	112	1
2	2717	116	1
2	2768	120	1
2	2878	124	1
2	2983	128	1
2	3088	132	1
2	3194	136	1
2	3245	140	1
2	3352	144	1
2	3456	148	1
2	3559	152	1
2	3663	156	1
2	3714	160	1
2	3818	164	1
2	3921	168	1
2	4025	172	1
2	4134	176	1
2	4185	180	1
2	4288	184	1
2	4393	188	1
2	4501	192	1
2	4610	196	1
2	4661	200	1
2	4763	204	1
2	4871	208	1
2	4975	212	1
2	5082	216	1
2	5133	220	1
2	5235	224	1
2	5338	228	1
2	5444	232	1
2	5551	236	1
2	5602	240	1
2	5705	244	1
2	5809	248	1
2	5913	252	1
2	6020	256	1
2	6071	260	1
2	6177	264	1
2	6283	268	1
2	6386	272	1
2	6490	276	1
2	6541	280	1
2	6643	284	1
2	6746	288	1
2	6854	292	1
2	6959	296	1
2	7010	300	1
2	7112	304	1
2	7215	308	1
2	7325	312	1
2	7429	316	1
2	7480	320	1
2	7585	324	1
2	7690	328	1
2	7792	332	1
2	7896	336	1
2	7947	340	1
2	8052	344	1
2	8157	348	1
2	8263	352	1
2	8368	356	1
2	8419	360	1
2	8521	364	1
2	8627	368	1
2	8729	372	1
2	8837	376	1
2	8888	380	1
2	8991	384	1
2	9095	388	1
2	9201	392	1
2	9303	396	1
2	9354	400	1
2	9457	404	1
2	9563	408	1
2	9668	412	1
2	9771	416	1
2	9822	420	1
2	9925	424	1
2	10028	428	1
2	10132	432	1
2	10234	436	1
2	10285	440	1
2	10388	444	1
2	10493	448	1
2	10596	452	1
2	10702	456	1
2	10753	460	1
2	10856	464	1
2	10961	468	1
2	11064	472	1
2	11169	476	1
2	11220	480	1
2	11326	484	1
2	11430	488	1
2	11534	492	1
2	11639	496	1
2	11690	500	1
2	11794	504	1
2	11898	508	1
2	12004	512	1
2	12106	516	1
2	12157	520	1
2	12260	524	1
2	12368	528	1
2	12474	532	1
2	12577	536	1
2	12628	540	1
2	12735	544	1
2	12839	548	1
2	12943	552	1
2	13047	556	1
2	13098	560	1
2	13199	564	1
2	13305	568	1
2	13409	572	1
2	13514	576	1
2	13565	580	1
2	13669	584	1
2	13772	588	1
2	13878	592	1
2	13982	596	1
2	14033	600	1
2	14134	604	1
2	14238	608	1
2	14344	612	1
2	14451	616	1
2	14502	620	1
2	14603	624	1
2	14710	628	1
2	14816	632	1
2	14920	636	1
2	14971	640	1
2	15074	644	1
2	15178	648	1
2	15282	652	1
2	15383	656	1
2	15434	660	1
2	15538	664	1
2	15641	668	1
2	15744	672	1
2	15849	676	1
2	15900	680	1
2	16002	684	1
2	16104	688	1
2	16211	692	1
2	16319	696	1
2	16370	700	1
2	16470	704	1
2	16572	708	1
2	16674	712	1
2	16778	716	1
2	16829	720	1
2	16932	724	1
2	17038	728	1
2	17143	732	1
2	17248	736	1
2	17299	740	1
2	17403	744	1
2	17510	748	1
2	17613	752	1
2	17716	756	1
2	17767	760	1
2	17868	764	1
2	17971	768	1
2	18076	772	1
2	18182	776	1
2	18233	780	1
2	18338	784	1
2	18442	788	1
2	18547	792	1
2	18649	796	1
2	18700	800	1
2	18803	804	1
2	18908	808	1
2	19017	812	1
2	19120	816	1
2	19171	820	1
2	19276	824	1
2	19382	828	1
2	19488	832	1
2	19589	836	1
2	19640	840	1
2	19741	844	1
2	19844	848	1
2	19948	852	1
2	20057	856	1
2	20108	860	1
2	20213	864	1
2	20319	868	1
2	20424	872	1
2	20528	876	1
2	20579	880	1
2	20681	884	1
2	20787	888	1
2	20894	892	1
2	20997	896	1
2	21048	900	1
2	21152	904	1
2	21256	908	1
2	21362	912	1
2	21466	916	1
2	21517	920	1
2	21621	924	1
2	21724	928	1
2	21830	932	1
2	21935	936	1
2	21986	940	1
2	22089	944	1
2	22190	948	1
2	22291	952	1
2	22395	956	1
2	22446	960	1
2	22549	964	1
2	22654	968	1
2	22758	972	1
2	22862	976	1
2	22913	980	1
2	23015	984	1
2	23121	988	1
2	23228	992	1
2	23335	996	1
2	23386	1000	1
2	23491	1004	1
2	23592	1008	1
2	23697	1012	1
2	23800	1016	1
2	23851	1020	1
2	23957	1024	1
2	24059	1028	1
2	24165	1032	1
2	24271	1036	1
2	24322	1040	1
2	24425	1044	1
2	24532	1048	1
2	24636	1052	1
2	24737	1056	1
2	24788	1060	1
2	24890	1064	1
2	24996	1068	1
2	25101	1072	1
2	25204	1076	1
2	25255	1080	1
2	25360	1084	1
2	25466	1088	1
2	25571	1092	1
2	25674	1096	1
2	25725	1100	1
2	25831	1104	1
2	25934	1108	1
2	26039	1112	1
2	26144	1116	1
2	26195	1120	1
2	26299	1124	1
2	26404	1128	1
2	26509	1132	1
2	26615	1136	1
2	26666	1140	1
2	26769	1144	1
2	26876	1148	1
2	26981	1152	1
2	27083	1156	1
2	27134	1160	1
2	27237	1164	1
2	27340	1168	1
2	27447	1172	1
2	27552	1176	1
2	27603	1180	1
2	27705	1184	1
2	27806	1188	1
2	27911	1192	1
2	28017	1196	1
2	28068	1200	1
2	28171	1204	1
2	28280	1208	1
2	28386	1212	1
2	28488	1216	1
2	28539	1220	1
2	28642	1224	1
2	28745	1228	1
2	28848	1232	1
2	28950	1236	1
2	29001	1240	1
2	29107	1244	1
2	29213	1248	1
2	29316	1252	1
2	29420	1256	1
2	29471	1260	1
2	29577	1264	1
2	29682	1268	1
2	29786	1272	1
2	29892	1276	1
2	29943	1280	1
2	30048	1284	1
2	30152	1288	1
2	30258	1292	1
2	30362	1296	1
2	30413	1300	1
2	30515	1304	1
2	30622	1308	1
2	30726	1312	1
2	30829	1316	1
2	30880	1320	1
2	30985	1324	1
2	31088	1328	1
2	31192	1332	1
2	31296	1336	1
2	31347	1340	1
2	31451	1344	1
2	31555	1348	1
2	31657	1352	1
2	31760	1356	1
2	31811	1360	1
2	31916	1364	1
2	32021	1368	1
2	32124	1372	1
2	32228	1376	1
2	32279	1380	1
2	32386	1384	1
2	32489	1388	1
2	32594	1392	1
2	32698	1396	1
2	32749	1400	1
2	32851	1404	1
2	32954	1408	1
2	33059	1412	1
2	33165	1416	1
2	33216	1420	1
2	33321	1424	1
2	33423	1428	1
2	33525	1432	1
2	33629	1436	1
2	33680	1440	1
2	33787	1444	1
2	33891	1448	1
2	33994	1452	1
2	34098	1456	1
2	34149	1460	1
2	34255	1464	1
2	34361	1468	1
2	34466	1472	1
2	34569	1476	1
2	34620	1480	1
2	34723	1484	1
2	34825	1488	1
2	34928	1492	1
2	35033	1496	1
2	35084	1500	1
2	35188	1504	1
2	35290	1508	1
2	35392	1512	1
2	35498	1516	1
2	35549	1520	1
2	35652	1524	1
2	35756	1528	1
2	35861	1532	1
2	35969	1536	1
2	36020	1540	1
2	36121	1544	1
2	36226	1548	1
2	36333	1552	1
2	36438	1556	1
2	36489	1560	1
2	36591	1564	1
2	36695	1568	1
2	36800	1572	1
2	36904	1576	1
2	36955	1580	1
2	37059	1584	1
2	37163	1588	1
2	37266	1592	1
2	37370	1596	1
2	37421	1600	1
2	37528	1604	1
2	37634	1608	1
2	37737	1612	1
2	37844	1616	1
2	37895	1620	1
2	37996	1624	1
2	38097	1628	1
2	38198	1632	1
2	38302	1636	1
2	38353	1640	1
2	38455	1644	1
2	38557	1648	1
2	38659	1652	1
2	38760	1656	1
2	38811	1660	1
2	38913	1664	1
2	39020	1668	1
2	39124	1672	1
2	39228	1676	1
2	39279	1680	1
2	39383	1684	1
2	39488	1688	1
2	39594	1692	1
2	39695	1696	1
2	39746	1700	1
2	39847	1704	1
2	39951	1708	1
2	40058	1712	1
2	40161	1716	1
2	40212	1720	1
2	40315	1724	1
2	40420	1728	1
2	40525	1732	1
2	40627	1736	1
2	40678	1740	1
2	40781	1744	1
2	40887	1748	1
2	40992	1752	1
2	41096	1756	1
2	41147	1760	1
2	41249	1764	1
2	41352	1768	1
2	41456	1772	1
2	41560	1776	1
2	41611	1780	1
2	41715	1784	1
2	41816	1788	1
2	41917	1792	1
2	42019	1796	1
2	42070	1800	1
2	42172	1804	1
2	42279	1808	1
2	42385	1812	1
2	42488	1816	1
2	42539	1820	1
2	42640	1824	1
2	42742	1828	1
2	42846	1832	1
2	42950	1836	1
2	43001	1840	1
2	43105	1844	1
2	43208	1848	1
2	43314	1852	1
2	43421	1856	1
2	43472	1860	1
2	43575	1864	1
2	43679	1868	1
2	43785	1872	1
2	43887	1876	1
2	43938	1880	1
2	44039	1884	1
2	44142	1888	1
2	44248	1892	1
2	44355	1896	1
2	44406	1900	1
2	44506	1904	1
2	44607	1908	1
2	44710	1912	1
2	44816	1916	1
2	44867	1920	1
2	44969	1924	1
2	45074	1928	1
2	45177	1932	1
2	45280	1936	1
2	45331	1940	1
2	45435	1944	1
2	45540	1948	1
2	45645	1952	1
2	45748	1956	1
2	45799	1960	1
2	45904	1964	1
2	46007	1968	1
2	46111	1972	1
2	46214	1976	1
2	46265	1980	1
2	46368	1984	1
2	46474	1988	1
2	46577	1992	1
2	46684	1996	1
2	46735	2000	1
2	46838	2004	1
2	46940	2008	1
2	47044	2012	1
2	47146	2016	1
2	47197	2020	1
2	47298	2024	1
2	47400	2028	1
2	47503	2032	1
2	47606	2036	1
2	47657	2040	1
2	47761	2044	1
2	47867	2048	1
2	47971	2052	1
2	48072	2056	1
2	48123	2060	1
2	48225	2064	1
2	48331	2068	1
2	48434	2072	1
2	48540	2076	1
2	48591	2080	1
2	48696	2084	1
2	48799	2088	1
2	48907	2092	1
2	49010	2096	1
2	49061	2100	1
2	49162	2104	1
2	49265	2108	1
2	49370	2112	1
2	49473	2116	1
2	49524	2120	1
2	49628	2124	1
2	49731	2128	1
2	49835	2132	1
2	49942	2136	1
2	49993	2140	1
2	50096	2144	1
2	50199	2148	1
2	50303	2152	1
2	50409	2156	1
2	50460	2160	1
2	50561	2164	1
2	50666	2168	1
2	50770	2172	1
2	50874	2176	1
2	50925	2180	1
2	51027	2184	1
2	51132	2188	1
2	51234	2192	1
2	51339	2196	1
2	51390	2200	1
2	51493	2204	1
2	51599	2208	1
2	51702	2212	1
2	51806	2216	1
2	51857	2220	1
2	51962	2224	1
2	52068	2228	1
2	52172	2232	1
2	52275	2236	1
2	52326	2240	1
2	52431	2244	1
2	52536	2248	1
2	52641	2252	1
2	52744	2256	1
2	52795	2260	1
2	52899	2264	1
2	53002	2268	1
2	53109	2272	1
2	53213	2276	1
2	53264	2280	1
2	53368	2284	1
2	53472	2288	1
2	53578	2292	1
2	53681	2296	1
2	53732	2300	1
2	53838	2304	1
2	53943	2308	1
2	54044	2312	1
2	54148	2316	1
2	54199	2320	1
2	54300	2324	1
2	54403	2328	1
2	54507	2332	1
2	54610	2336	1
2	54661	2340	1
2	54766	2344	1
2	54869	2348	1
2	54976	2352	1
2	55080	2356	1
2	55131	2360	1
2	55233	2364	1
2	55335	2368	1
2	55438	2372	1
2	55540	2376	1
2	55591	2380	1
2	55693	2384	1
2	55796	2388	1
2	55899	2392	1
2	56001	2396	1
2	56052	2400	1
2	56156	2404	1
2	56263	2408	1
2	56366	2412	1
2	56471	2416	1
2	56522	2420	1
2	56626	2424	1
2	56731	2428	1
2	56837	2432	1
2	56945	2436	1
2	56996	2440	1
2	57098	2444	1
2	57200	2448	1
2	57305	2452	1
2	57410	2456	1
2	57461	2460	1
2	57566	2464	1
2	57671	2468	1
2	57775	2472	1
2	57877	2476	1
2	57928	2480	1
2	58033	2484	1
2	58141	2488	1
2	58243	2492	1
2	58347	2496	1
2	58398	2500	1
2	58501	2504	1
2	58603	2508	1
2	58706	2512	1
2	58815	2516	1
2	58866	2520	1
2	58968	2524	1
2	59075	2528	1
2	59177	2532	1
2	59279	2536	1
2	59330	2540	1
2	59432	2544	1
2	59540	2548	1
2	59643	2552	1
2	59747	2556	1
2	59798	2560	1
2	59901	2564	1
2	60004	2568	1
2	60107	2572	1
2	60210	2576	1
2	60261	2580	1
2	60363	2584	1
2	60464	2588	1
2	60566	2592	1
2	60670	2596	1
2	60721	2600	1
2	60824	2604	1
2	60927	2608	1
2	61032	2612	1
2	61136	2616	1
2	61187	2620	1
2	61292	2624	1
2	61397	2628	1
2	61501	2632	1
2	61604	2636	1
2	61655	2640	1
2	61757	2644	1
2	61863	2648	1
2	61967	2652	1
2	62071	2656	1
2	62122	2660	1
2	62224	2664	1
2	62327	2668	1
2	62429	2672	1
2	62532	2676	1
2	62583	2680	1
2	62691	2684	1
2	62796	2688	1
2	62899	2692	1
2	63001	2696	1
2	63052	2700	1
2	63153	2704	1
2	63257	2708	1
2	63362	2712	1
2	63467	2716	1
2	63518	2720	1
2	63621	2724	1
2	63726	2728	1
2	63831	2732	1
2	63935	2736	1
2	63986	2740	1
2	64092	2744	1
2	64194	2748	1
2	64297	2752	1
2	64402	2756	1
2	64453	2760	1
2	64554	2764	1
2	64658	2768	1
2	64766	2772	1
2	64871	2776	1
2	64922	2780	1
2	65022	2784	1
2	65125	2788	1
2	65227	2792	1
2	65333	2796	1
2	65384	2800	1
2	65487	2804	1
2	65590	2808	1
2	65697	2812	1
2	65801	2816	1
2	65852	2820	1
2	65954	2824	1
2	66059	2828	1
2	66164	2832	1
2	66265	2836	1
2	66316	2840	1
2	66419	2844	1
2	66522	2848	1
2	66626	2852	1
2	66728	2856	1
2	66779	2860	1
2	66881	2864	1
2	66985	2868	1
2	67089	2872	1
2	67193	2876	1
2	67244	2880	1
2	67349	2884	1
2	67451	2888	1
2	67555	2892	1
2	67661	2896	1
2	67712	2900	1
2	67814	2904	1
2	67916	2908	1
2	68020	2912	1
2	68125	2916	1
2	68176	2920	1
2	68280	2924	1
2	68383	2928	1
2	68487	2932	1
2	68590	2936	1
2	68641	2940	1
2	68746	2944	1
2	68850	2948	1
2	68953	2952	1
2	69056	2956	1
2	69107	2960	1
2	69213	2964	1
2	69317	2968	1
2	69423	2972	1
2	69525	2976	1
2	69576	2980	1
2	69677	2984	1
2	69779	2988	1
2	69881	2992	1
2	69985	2996	1
2	70036	3000	1
2	70139	3004	1
2	70246	3008	1
2	70349	3012	1
2	70453	3016	1
2	70504	3020	1
2	70611	3024	1
2	70715	3028	1
2	70819	3032	1
2	70926	3036	1
2	70977	3040	1
2	71078	3044	1
2	71184	3048	1
2	71288	3052	1
2	71394	3056	1
2	71445	3060	1
2	71547	3064	1
2	71650	3068	1
2	71753	3072	1
2	71855	3076	1
2	71906	3080	1
2	72008	3084	1
2	72112	3088	1
2	72219	3092	1
2	72323	3096	1
2	72374	3100	1
2	72477	3104	1
2	72579	3108	1
2	72683	3112	1
2	72788	3116	1
2	72839	3120	1
2	72940	3124	1
2	73044	3128	1
2	73148	3132	1
2	73251	3136	1
2	73302	3140	1
2	73404	3144	1
2	73509	3148	1
2	73611	3152	1
2	73715	3156	1
2	73766	3160	1
2	73869	3164	1
2	73972	3168	1
2	74075	3172	1
2	74176	3176	1
2	74227	3180	1
2	74329	3184	1
2	74433	3188	1
2	74536	3192	1
2	74643	3196	1
2	74694	3200	1
2	74796	3204	1
2	74899	3208	1
2	75003	3212	1
2	75106	3216	1
2	75157	3220	1
2	75261	3224	1
2	75367	3228	1
2	75470	3232	1
2	75574	3236	1
2	75625	3240	1
2	75725	3244	1
2	75826	3248	1
2	75928	3252	1
2	76034	3256	1
2	76085	3260	1
2	76187	3264	1
2	76289	3268	1
2	76392	3272	1
2	76495	3276	1
2	76546	3280	1
2	76649	3284	1
2	76754	3288	1
2	76856	3292	1
2	76959	3296	1
2	77010	3300	1
2	77114	3304	1
2	77218	3308	1
2	77324	3312	1
2	77427	3316	1
2	77478	3320	1
2	77579	3324	1
2	77683	3328	1
2	77787	3332	1
2	77891	3336	1
2	77942	3340	1
2	78047	3344	1
2	78149	3348	1
2	78251	3352	1
2	78354	3356	1
2	78405	3360	1
2	78508	3364	1
2	78613	3368	1
2	78715	3372	1
2	78819	3376	1
2	78870	3380	1
2	78971	3384	1
2	79074	3388	1
2	79176	3392	1
2	79278	3396	1
2	79329	3400	1
2	79432	3404	1
2	79536	3408	1
2	79641	3412	1
2	79743	3416	1
2	79794	3420	1
2	79896	3424	1
2	80004	3428	1
2	80105	3432	1
2	80207	3436	1
2	80258	3440	1
2	80360	3444	1
2	80464	3448	1
2	80565	3452	1
2	80667	3456	1
2	80718	3460	1
2	80820	3464	1
2	80923	3468	1
2	81027	3472	1
2	81132	3476	1
2	81183	3480	1
2	81283	3484	1
2	81385	3488	1
2	81492	3492	1
2	81594	3496	1
2	81645	3500	1
2	81748	3504	1
2	81849	3508	1
2	81951	3512	1
2	82055	3516	1
2	82106	3520	1
2	82210	3524	1
2	82314	3528	1
2	82419	3532	1
2	82523	3536	1
2	82574	3540	1
2	82679	3544	1
2	82782	3548	1
2	82887	3552	1
2	82989	3556	1
2	83040	3560	1
2	83142	3564	1
2	83246	3568	1
2	83350	3572	1
2	83456	3576	1
2	83507	3580	1
2	83608	3584	1
2	83714	3588	1
2	83818	3592	1
2	83924	3596	1
2	83975	3600	1
3	4	4	1
3	118	8	1
3	220	12	1
3	333	16	1
3	384	20	1
3	493	24	1
3	599	28	1
3	708	32	1
3	813	36	1
3	864	40	1
3	968	44	1
3	1076	48	1
3	1183	52	1
3	1291	56	1
3	1342	60	1
3	1449	64	1
3	1555	68	1
3	1664	72	1
3	1770	76	1
3	1821	80	1
3	1924	84	1
3	2029	88	1
3	2135	92	1
3	2243	96	1
3	2294	100	1
3	2398	104	1
3	2506	108	1
3	2614	112	1
3	2718	116	1
3	2769	120	1
3	2879	124	1
3	2984	128	1
3	3089	132	1
3	3195	136	1
3	3246	140	1
3	3353	144	1
3	3457	148	1
3	3560	152	1
3	3664	156	1
3	3715	160	1
3	3819	164	1
3	3922	168	1
3	4026	172	1
3	4135	176	1
3	4186	180	1
3	4289	184	1
3	4394	188	1
3	4502	192	1
3	4611	196	1
3	4662	200	1
3	4764	204	1
3	4872	208	1
3	4976	212	1
3	5083	216	1
3	5134	220	1
3	5236	224	1
3	5339	228	1
3	5445	232	1
3	5552	236	1
3	5603	240	1
3	5706	244	1
3	5810	248	1
3	5914	252	1
3	6021	256	1
3	6072	260	1
3	6178	264	1
3	6284	268	1
3	6387	272	1
3	6491	276	1
3	6542	280	1
3	6644	284	1
3	6747	288	1
3	6855	292	1
3	6960	296	1
3	7011	300	1
3	7113	304	1
3	7216	308	1
3	7326	312	1
3	7430	316	1
3	7481	320	1
3	7586	324	1
3	7691	328	1
3	7793	332	1
3	7897	336	1
3	7948	340	1
3	8053	344	1
3	8158	348	1
3	8264	352	1
3	8369	356	1
3	8420	360	1
3	8522	364	1
3	8628	368	1
3	8730	372	1
3	8838	376	1
3	8889	380	1
3	8992	384	1
3	9096	388	1
3	9202	392	1
3	9304	396	1
3	9355	400	1
3	9458	404	1
3	9564	408	1
3	9669	412	1
3	9772	416	1
3	9823	420	1
3	9926	424	1
3	10029	428	1
3	10133	432	1
3	10235	436	1
3	10286	440	1
3	10389	444	1
3	10494	448	1
3	10597	452	1
3	10703	456	1
3	10754	460	1
3	10857	464	1
3	10962	468	1
3	11065	472	1
3	11170	476	1
3	11221	480	1
3	11327	484	1
3	11431	488	1
3	11535	492	1
3	11640	496	1
3	11691	500	1
3	11795	504	1
3	11899	508	1
3	12005	512	1
3	12107	516	1
3	12158	520	1
3	12261	524	1
3	12369	528	1
3	12475	532	1
3	12578	536	1
3	12629	540	1
3	12736	544	1
3	12840	548	1
3	12944	552	1
3	13048	556	1
3	13099	560	1
3	13200	564	1
3	13306	568	1
3	13410	572	1
3	13515	576	1
3	13566	580	1
3	13670	584	1
3	13773	588	1
3	13879	592	1
3	13983	596	1
3	14034	600	1
3	14135	604	1
3	14239	608	1
3	14345	612	1
3	14452	616	1
3	14503	620	1
3	14604	624	1
3	14711	628	1
3	14817	632	1
3	14921	636	1
3	14972	640	1
3	15075	644	1
3	15179	648	1
3	15283	652	1
3	15384	656	1
3	15435	660	1
3	15539	664	1
3	15642	668	1
3	15745	672	1
3	15850	676	1
3	15901	680	1
3	16003	684	1
3	16105	688	1
3	16212	692	1
3	16320	696	1
3	16371	700	1
3	16471	704	1
3	16573	708	1
3	16675	712	1
3	16779	716	1
3	16830	720	1
3	16933	724	1
3	17039	728	1
3	17144	732	1
3	17249	736	1
3	17300	740	1
3	17404	744	1
3	17511	748	1
3	17614	752	1
3	17717	756	1
3	17768	760	1
3	17869	764	1
3	17972	768	1
3	18077	772	1
3	18183	776	1
3	18234	780	1
3	18339	784	1
3	18443	788	1
3	18548	792	1
3	18650	796	1
3	18701	800	1
3	18804	804	1
3	18909	808	1
3	19018	812	1
3	19121	816	1
3	19172	820	1
3	19277	824	1
3	19383	828	1
3	19489	832	1
3	19590	836	1
3	19641	840	1
3	19742	844	1
3	19845	848	1
3	19949	852	1
3	20058	856	1
3	20109	860	1
3	20214	864	1
3	20320	868	1
3	20425	872	1
3	20529	876	1
3	20580	880	1
3	20682	884	1
3	20788	888	1
3	20895	892	1
3	20998	896	1
3	21049	900	1
3	21153	904	1
3	21257	908	1
3	21363	912	1
3	21467	916	1
3	21518	920	1
3	21622	924	1
3	21725	928	1
3	21831	932	1
3	21936	936	1
3	21987	940	1
3	22090	944	1
3	22191	948	1
3	22292	952	1
3	22396	956	1
3	22447	960	1
3	22550	964	1
3	22655	968	1
3	22759	972	1
3	22863	976	1
3	22914	980	1
3	23016	984	1
3	23122	988	1
3	23229	992	1
3	23336	996	1
3	23387	1000	1
3	23492	1004	1
3	23593	1008	1
3	23698	1012	1
3	23801	1016	1
3	23852	1020	1
3	23958	1024	1
3	24060	1028	1
3	24166	1032	1
3	24272	1036	1
3	24323	1040	1
3	24426	1044	1
3	24533	1048	1
3	24637	1052	1
3	24738	1056	1
3	24789	1060	1
3	24891	1064	1
3	24997	1068	1
3	25102	1072	1
3	25205	1076	1
3	25256	1080	1
3	25361	1084	1
3	25467	1088	1
3	25572	1092	1
3	25675	1096	1
3	25726	1100	1
3	25832	1104	1
3	25935	1108	1
3	26040	1112	1
3	26145	1116	1
3	26196	1120	1
3	26300	1124	1
3	26405	1128	1
3	26510	1132	1
3	26616	1136	1
3	26667	1140	1
3	26770	1144	1
3	26877	1148	1
3	26982	1152	1
3	27084	1156	1
3	27135	1160	1
3	27238	1164	1
3	27341	1168	1
3	27448	1172	1
3	27553	1176	1
3	27604	1180	1
3	27706	1184	1
3	27807	1188	1
3	27912	1192	1
3	28018	1196	1
3	28069	1200	1
3	28172	1204	1
3	28281	1208	1
3	28387	1212	1
3	28489	1216	1
3	28540	1220	1
3	28643	1224	1
3	28746	1228	1
3	28849	1232	1
3	28951	1236	1
3	29002	1240	1
3	29108	1244	1
3	29214	1248	1
3	29317	1252	1
3	29421	1256	1
3	29472	1260	1
3	29578	1264	1
3	29683	1268	1
3	29787	1272	1
3	29893	1276	1
3	29944	1280	1
3	30049	1284	1
3	30153	1288	1
3	30259	1292	1
3	30363	1296	1
3	30414	1300	1
3	30516	1304	1
3	30623	1308	1
3	30727	1312	1
3	30830	1316	1
3	30881	1320	1
3	30986	1324	1
3	31089	1328	1
3	31193	1332	1
3	31297	1336	1
3	31348	1340	1
3	31452	1344	1
3	31556	1348	1
3	31658	1352	1
3	31761	1356	1
3	31812	1360	1
3	31917	1364	1
3	32022	1368	1
3	32125	1372	1
3	32229	1376	1
3	32280	1380	1
3	32387	1384	1
3	32490	1388	1
3	32595	1392	1
3	32699	1396	1
3	32750	1400	1
3	32852	1404	1
3	32955	1408	1
3	33060	1412	1
3	33166	1416	1
3	33217	1420	1
3	33322	1424	1
3	33424	1428	1
3	33526	1432	1
3	33630	1436	1
3	33681	1440	1
3	33788	1444	1
3	33892	1448	1
3	33995	1452	1
3	34099	1456	1
3	34150	1460	1
3	34256	1464	1
3	34362	1468	1
3	34467	1472	1
3	34570	1476	1
3	34621	1480	1
3	34724	1484	1
3	34826	1488	1
3	34929	1492	1
3	35034	1496	1
3	35085	1500	1
3	35189	1504	1
3	35291	1508	1
3	35393	1512	1
3	35499	1516	1
3	35550	1520	1
3	35653	1524	1
3	35757	1528	1
3	35862	1532	1
3	35970	1536	1
3	36021	1540	1
3	36122	1544	1
3	36227	1548	1
3	36334	1552	1
3	36439	1556	1
3	36490	1560	1
3	36592	1564	1
3	36696	1568	1
3	36801	1572	1
3	36905	1576	1
3	36956	1580	1
3	37060	1584	1
3	37164	1588	1
3	37267	1592	1
3	37371	1596	1
3	37422	1600	1
3	37529	1604	1
3	37635	1608	1
3	37738	1612	1
3	37845	1616	1
3	37896	1620	1
3	37997	1624	1
3	38098	1628	1
3	38199	1632	1
3	38303	1636	1
3	38354	1640	1
3	38456	1644	1
3	38558	1648	1
3	38660	1652	1
3	38761	1656	1
3	38812	1660	1
3	38914	1664	1
3	39021	1668	1
3	39125	1672	1
3	39229	1676	1
3	39280	1680	1
3	39384	1684	1
3	39489	1688	1
3	39595	1692	1
3	39696	1696	1
3	39747	1700	1
3	39848	1704	1
3	39952	1708	1
3	40059	1712	1
3	40162	1716	1
3	40213	1720	1
3	40316	1724	1
3	40421	1728	1
3	40526	1732	1
3	40628	1736	1
3	40679	1740	1
3	40782	1744	1
3	40888	1748	1
3	40993	1752	1
3	41097	1756	1
3	41148	1760	1
3	41250	1764	1
3	41353	1768	1
3	41457	1772	1
3	41561	1776	1
3	41612	1780	1
3	41716	1784	1
3	41817	1788	1
3	41918	1792	1
3	42020	1796	1
3	42071	1800	1
3	42173	1804	1
3	42280	1808	1
3	42386	1812	1
3	42489	1816	1
3	42540	1820	1
3	42641	1824	1
3	42743	1828	1
3	42847	1832	1
3	42951	1836	1
3	43002	1840	1
3	43106	1844	1
3	43209	1848	1
3	43315	1852	1
3	43422	1856	1
3	43473	1860	1
3	43576	1864	1
3	43680	1868	1
3	43786	1872	1
3	43888	1876	1
3	43939	1880	1
3	44040	1884	1
3	44143	1888	1
3	44249	1892	1
3	44356	1896	1
3	44407	1900	1
3	44507	1904	1
3	44608	1908	1
3	44711	1912	1
3	44817	1916	1
3	44868	1920	1
3	44970	1924	1
3	45075	1928	1
3	45178	1932	1
3	45281	1936	1
3	45332	1940	1
3	45436	1944	1
3	45541	1948	1
3	45646	1952	1
3	45749	1956	1
3	45800	1960	1
3	45905	1964	1
3	46008	1968	1
3	46112	1972	1
3	46215	1976	1
3	46266	1980	1
3	46369	1984	1
3	46475	1988	1
3	46578	1992	1
3	46685	1996	1
3	46736	2000	1
3	46839	2004	1
3	46941	2008	1
3	47045	2012	1
3	47147	2016	1
3	47198	2020	1
3	47299	2024	1
3	47401	2028	1
3	47504	2032	1
3	47607	2036	1
3	47658	2040	1
3	47762	2044	1
3	47868	2048	1
3	47972	2052	1
3	48073	2056	1
3	48124	2060	1
3	48226	2064	1
3	48332	2068	1
3	48435	2072	1
3	48541	2076	1
3	48592	2080	1
3	48697	2084	1
3	48800	2088	1
3	48908	2092	1
3	49011	2096	1
3	49062	2100	1
3	49163	2104	1
3	49266	2108	1
3	49371	2112	1
3	49474	2116	1
3	49525	2120	1
3	49629	2124	1
3	49732	2128	1
3	49836	2132	1
3	49943	2136	1
3	49994	2140	1
3	50097	2144	1
3	50200	2148	1
3	50304	2152	1
3	50410	2156	1
3	50461	2160	1
3	50562	2164	1
3	50667	2168	1
3	50771	2172	1
3	50875	2176	1
3	50926	2180	1
3	51028	2184	1
3	51133	2188	1
3	51235	2192	1
3	51340	2196	1
3	51391	2200	1
3	51494	2204	1
3	51600	2208	1
3	51703	2212	1
3	51807	2216	1
3	51858	2220	1
3	51963	2224	1
3	52069	2228	1
3	52173	2232	1
3	52276	2236	1
3	52327	2240	1
3	52432	2244	1
3	52537	2248	1
3	52642	2252	1
3	52745	2256	1
3	52796	2260	1
3	52900	2264	1
3	53003	2268	1
3	53110	2272	1
3	53214	2276	1
3	53265	2280	1
3	53369	2284	1
3	53473	2288	1
3	53579	2292	1
3	53682	2296	1
3	53733	2300	1
3	53839	2304	1
3	53944	2308	1
3	54045	2312	1
3	54149	2316	1
3	54200	2320	1
3	54301	2324	1
3	54404	2328	1
3	54508	2332	1
3	54611	2336	1
3	54662	2340	1
3	54767	2344	1
3	54870	2348	1
3	54977	2352	1
3	55081	2356	1
3	55132	2360	1
3	55234	2364	1
3	55336	2368	1
3	55439	2372	1
3	55541	2376	1
3	55592	2380	1
3	55694	2384	1
3	55797	2388	1
3	55900	2392	1
3	56002	2396	1
3	56053	2400	1
3	56157	2404	1
3	56264	2408	1
3	56367	2412	1
3	56472	2416	1
3	56523	2420	1
3	56627	2424	1
3	56732	2428	1
3	56838	2432	1
3	56946	2436	1
3	56997	2440	1
3	57099	2444	1
3	57201	2448	1
3	57306	2452	1
3	57411	2456	1
3	57462	2460	1
3	57567	2464	1
3	57672	2468	1
3	57776	2472	1
3	57878	2476	1
3	57929	2480	1
3	58034	2484	1
3	58142	2488	1
3	58244	2492	1
3	58348	2496	1
3	58399	2500	1
3	58502	2504	1
3	58604	2508	1
3	58707	2512	1
3	58816	2516	1
3	58867	2520	1
3	58969	2524	1
3	59076	2528	1
3	59178	2532	1
3	59280	2536	1
3	59331	2540	1
3	59433	2544	1
3	59541	2548	1
3	59644	2552	1
3	59748	2556	1
3	59799	2560	1
3	59902	2564	1
3	60005	2568	1
3	60108	2572	1
3	60211	2576	1
3	60262	2580	1
3	60364	2584	1
3	60465	2588	1
3	60567	2592	1
3	60671	2596	1
3	60722	2600	1
3	60825	2604	1
3	60928	2608	1
3	61033	2612	1
3	61137	2616	1
3	61188	2620	1
3	61293	2624	1
3	61398	2628	1
3	61502	2632	1
3	61605	2636	1
3	61656	2640	1
3	61758	2644	1
3	61864	2648	1
3	61968	2652	1
3	62072	2656	1
3	62123	2660	1
3	62225	2664	1
3	62328	2668	1
3	62430	2672	1
3	62533	2676	1
3	62584	2680	1
3	62692	2684	1
3	62797	2688	1
3	62900	2692	1
3	63002	2696	1
3	63053	2700	1
3	63154	2704	1
3	63258	2708	1
3	63363	2712	1
3	63468	2716	1
3	63519	2720	1
3	63622	2724	1
3	63727	2728	1
3	63832	2732	1
3	63936	2736	1
3	63987	2740	1
3	64093	2744	1
3	64195	2748	1
3	64298	2752	1
3	64403	2756	1
3	64454	2760	1
3	64555	2764	1
3	64659	2768	1
3	64767	2772	1
3	64872	2776	1
3	64923	2780	1
3	65023	2784	1
3	65126	2788	1
3	65228	2792	1
3	65334	2796	1
3	65385	2800	1
3	65488	2804	1
3	65591	2808	1
3	65698	2812	1
3	65802	2816	1
3	65853	2820	1
3	65955	2824	1
3	66060	2828	1
3	66165	2832	1
3	66266	2836	1
3	66317	2840	1
3	66420	2844	1
3	66523	2848	1
3	66627	2852	1
3	66729	2856	1
3	66780	2860	1
3	66882	2864	1
3	66986	2868	1
3	67090	2872	1
3	67194	2876	1
3	67245	2880	1
3	67350	2884	1
3	67452	2888	1
3	67556	2892	1
3	67662	2896	1
3	67713	2900	1
3	67815	2904	1
3	67917	2908	1
3	68021	2912	1
3	68126	2916	1
3	68177	2920	1
3	68281	2924	1
3	68384	2928	1
3	68488	2932	1
3	68591	2936	1
3	68642	2940	1
3	68747	2944	1
3	68851	2948	1
3	68954	2952	1
3	69057	2956	1
3	69108	2960	1
3	69214	2964	1
3	69318	2968	1
3	69424	2972	1
3	69526	2976	1
3	69577	2980	1
3	69678	2984	1
3	69780	2988	1
3	69882	2992	1
3	69986	2996	1
3	70037	3000	1
3	70140	3004	1
3	70247	3008	1
3	70350	3012	1
3	70454	3016	1
3	70505	3020	1
3	70612	3024	1
3	70716	3028	1
3	70820	3032	1
3	70927	3036	1
3	70978	3040	1
3	71079	3044	1
3	71185	3048	1
3	71289	3052	1
3	71395	3056	1
3	71446	3060	1
3	71548	3064	1
3	71651	3068	1
3	71754	3072	1
3	71856	3076	1
3	71907	3080	1
3	72009	3084	1
3	72113	3088	1
3	72220	3092	1
3	72324	3096	1
3	72375	3100	1
3	72478	3104	1
3	72580	3108	1
3	72684	3112	1
3	72789	3116	1
3	72840	3120	1
3	72941	3124	1
3	73045	3128	1
3	73149	3132	1
3	73252	3136	1
3	73303	3140	1
3	73405	3144	1
3	73510	3148	1
3	73612	3152	1
3	73716	3156	1
3	73767	3160	1
3	73870	3164	1
3	73973	3168	1
3	74076	3172	1
3	74177	3176	1
3	74228	3180	1
3	74330	3184	1
3	74434	3188	1
3	74537	3192	1
3	74644	3196	1
3	74695	3200	1
3	74797	3204	1
3	74900	3208	1
3	75004	3212	1
3	75107	3216	1
3	75158	3220	1
3	75262	3224	1
3	75368	3228	1
3	75471	3232	1
3	75575	3236	1
3	75626	3240	1
3	75726	3244	1
3	75827	3248	1
3	75929	3252	1
3	76035	3256	1
3	76086	3260	1
3	76188	3264	1
3	76290	3268	1
3	76393	3272	1
3	76496	3276	1
3	76547	3280	1
3	76650	3284	1
3	76755	3288	1
3	76857	3292	1
3	76960	3296	1
3	77011	3300	1
3	77115	3304	1
3	77219	3308	1
3	77325	3312	1
3	77428	3316	1
3	77479	3320	1
3	77580	3324	1
3	77684	3328	1
3	77788	3332	1
3	77892	3336	1
3	77943	3340	1
3	78048	3344	1
3	78150	3348	1
3	78252	3352	1
3	78355	3356	1
3	78406	3360	1
3	78509	3364	1
3	78614	3368	1
3	78716	3372	1
3	78820	3376	1
3	78871	3380	1
3	78972	3384	1
3	79075	3388	1
3	79177	3392	1
3	79279	3396	1
3	79330	3400	1
3	79433	3404	1
3	79537	3408	1
3	79642	3412	1
3	79744	3416	1
3	79795	3420	1
3	79897	3424	1
3	80005	3428	1
3	80106	3432	1
3	80208	3436	1
3	80259	3440	1
3	80361	3444	1
3	80465	3448	1
3	80566	3452	1
3	80668	3456	1
3	80719	3460	1
3	80821	3464	1
3	80924	3468	1
3	81028	3472	1
3	81133	3476	1
3	81184	3480	1
3	81284	3484	1
3	81386	3488	1
3	81493	3492	1
3	81595	3496	1
3	81646	3500	1
3	81749	3504	1
3	81850	3508	1
3	81952	3512	1
3	82056	3516	1
3	82107	3520	1
3	82211	3524	1
3	82315	3528	1
3	82420	3532	1
3	82524	3536	1
3	82575	3540	1
3	82680	3544	1
3	82783	3548	1
3	82888	3552	1
3	82990	3556	1
3	83041	3560	1
3	83143	3564	1
3	83247	3568	1
3	83351	3572	1
3	83457	3576	1
3	83508	3580	1
3	83609	3584	1
3	83715	3588	1
3	83819	3592	1
3	83925	3596	1
3	83976	3600	1
4	5	4	1
4	119	8	1
4	221	12	1
4	334	16	1
4	385	20	1
4	494	24	1
4	600	28	1
4	709	32	1
4	814	36	1
4	865	40	1
4	969	44	1
4	1077	48	1
4	1184	52	1
4	1292	56	1
4	1343	60	1
4	1450	64	1
4	1556	68	1
4	1665	72	1
4	1771	76	1
4	1822	80	1
4	1925	84	1
4	2030	88	1
4	2136	92	1
4	2244	96	1
4	2295	100	1
4	2399	104	1
4	2507	108	1
4	2615	112	1
4	2719	116	1
4	2770	120	1
4	2880	124	1
4	2985	128	1
4	3090	132	1
4	3196	136	1
4	3247	140	1
4	3354	144	1
4	3458	148	1
4	3561	152	1
4	3665	156	1
4	3716	160	1
4	3820	164	1
4	3923	168	1
4	4027	172	1
4	4136	176	1
4	4187	180	1
4	4290	184	1
4	4395	188	1
4	4503	192	1
4	4612	196	1
4	4663	200	1
4	4765	204	1
4	4873	208	1
4	4977	212	1
4	5084	216	1
4	5135	220	1
4	5237	224	1
4	5340	228	1
4	5446	232	1
4	5553	236	1
4	5604	240	1
4	5707	244	1
4	5811	248	1
4	5915	252	1
4	6022	256	1
4	6073	260	1
4	6179	264	1
4	6285	268	1
4	6388	272	1
4	6492	276	1
4	6543	280	1
4	6645	284	1
4	6748	288	1
4	6856	292	1
4	6961	296	1
4	7012	300	1
4	7114	304	1
4	7217	308	1
4	7327	312	1
4	7431	316	1
4	7482	320	1
4	7587	324	1
4	7692	328	1
4	7794	332	1
4	7898	336	1
4	7949	340	1
4	8054	344	1
4	8159	348	1
4	8265	352	1
4	8370	356	1
4	8421	360	1
4	8523	364	1
4	8629	368	1
4	8731	372	1
4	8839	376	1
4	8890	380	1
4	8993	384	1
4	9097	388	1
4	9203	392	1
4	9305	396	1
4	9356	400	1
4	9459	404	1
4	9565	408	1
4	9670	412	1
4	9773	416	1
4	9824	420	1
4	9927	424	1
4	10030	428	1
4	10134	432	1
4	10236	436	1
4	10287	440	1
4	10390	444	1
4	10495	448	1
4	10598	452	1
4	10704	456	1
4	10755	460	1
4	10858	464	1
4	10963	468	1
4	11066	472	1
4	11171	476	1
4	11222	480	1
4	11328	484	1
4	11432	488	1
4	11536	492	1
4	11641	496	1
4	11692	500	1
4	11796	504	1
4	11900	508	1
4	12006	512	1
4	12108	516	1
4	12159	520	1
4	12262	524	1
4	12370	528	1
4	12476	532	1
4	12579	536	1
4	12630	540	1
4	12737	544	1
4	12841	548	1
4	12945	552	1
4	13049	556	1
4	13100	560	1
4	13201	564	1
4	13307	568	1
4	13411	572	1
4	13516	576	1
4	13567	580	1
4	13671	584	1
4	13774	588	1
4	13880	592	1
4	13984	596	1
4	14035	600	1
4	14136	604	1
4	14240	608	1
4	14346	612	1
4	14453	616	1
4	14504	620	1
4	14605	624	1
4	14712	628	1
4	14818	632	1
4	14922	636	1
4	14973	640	1
4	15076	644	1
4	15180	648	1
4	15284	652	1
4	15385	656	1
4	15436	660	1
4	15540	664	1
4	15643	668	1
4	15746	672	1
4	15851	676	1
4	15902	680	1
4	16004	684	1
4	16106	688	1
4	16213	692	1
4	16321	696	1
4	16372	700	1
4	16472	704	1
4	16574	708	1
4	16676	712	1
4	16780	716	1
4	16831	720	1
4	16934	724	1
4	17040	728	1
4	17145	732	1
4	17250	736	1
4	17301	740	1
4	17405	744	1
4	17512	748	1
4	17615	752	1
4	17718	756	1
4	17769	760	1
4	17870	764	1
4	17973	768	1
4	18078	772	1
4	18184	776	1
4	18235	780	1
4	18340	784	1
4	18444	788	1
4	18549	792	1
4	18651	796	1
4	18702	800	1
4	18805	804	1
4	18910	808	1
4	19019	812	1
4	19122	816	1
4	19173	820	1
4	19278	824	1
4	19384	828	1
4	19490	832	1
4	19591	836	1
4	19642	840	1
4	19743	844	1
4	19846	848	1
4	19950	852	1
4	20059	856	1
4	20110	860	1
4	20215	864	1
4	20321	868	1
4	20426	872	1
4	20530	876	1
4	20581	880	1
4	20683	884	1
4	20789	888	1
4	20896	892	1
4	20999	896	1
4	21050	900	1
4	21154	904	1
4	21258	908	1
4	21364	912	1
4	21468	916	1
4	21519	920	1
4	21623	924	1
4	21726	928	1
4	21832	932	1
4	21937	936	1
4	21988	940	1
4	22091	944	1
4	22192	948	1
4	22293	952	1
4	22397	956	1
4	22448	960	1
4	22551	964	1
4	22656	968	1
4	22760	972	1
4	22864	976	1
4	22915	980	1
4	23017	984	1
4	23123	988	1
4	23230	992	1
4	23337	996	1
4	23388	1000	1
4	23493	1004	1
4	23594	1008	1
4	23699	1012	1
4	23802	1016	1
4	23853	1020	1
4	23959	1024	1
4	24061	1028	1
4	24167	1032	1
4	24273	1036	1
4	24324	1040	1
4	24427	1044	1
4	24534	1048	1
4	24638	1052	1
4	24739	1056	1
4	24790	1060	1
4	24892	1064	1
[...]
141	22706	970	242
142	4815	205	1
142	6436	275	1
142	8573	365	1
142	12312	525	1
142	14290	610	1
142	16984	725	1
142	20000	855	1
142	21307	910	1
142	21882	935	1
142	22496	960	1
142	22706	970	1
143	5027	215	1
143	5390	230	1
143	11114	475	1
143	13148	560	1
143	17088	730	1
143	18960	810	1
143	21776	930	1
143	22808	975	1
143	24372	1040	1
143	29734	1270	1
143	30931	1320	1
143	34198	1460	1
143	35240	1505	1
143	35911	1535	1
143	37005	1580	1
143	40472	1730	1
143	56573	2420	1
143	59695	2555	1
143	60979	2610	1
143	61082	2615	1
143	61553	2635	1
143	68537	2935	1
143	69625	2980	1
143	69829	2990	1
143	71339	3055	1
143	72162	3090	1
143	74949	3210	1
143	76442	3275	1
143	77837	3335	1
143	79693	3415	1
143	79946	3425	1
143	80767	3460	1
143	81079	3475	1
143	82262	3525	1
144	5027	215	211
144	5390	230	222
144	11114	475	463
144	13148	560	544
144	17088	730	710
144	18960	810	594
144	21776	930	698
144	22808	975	499
144	24372	1040	476
144	29734	1270	538
144	30931	1320	508
144	34198	1460	528
144	35240	1505	529
144	35911	1535	491
144	37005	1580	308
144	40472	1730	406
144	56573	2420	956
144	59695	2555	1047
144	60979	2610	1074
144	61082	2615	1031
144	61553	2635	903
144	68537	2935	511
144	69625	2980	424
144	69829	2990	378
144	71339	3055	439
144	72162	3090	454
144	74949	3210	274
144	76442	3275	291
144	77837	3335	343
144	79693	3415	359
144	79946	3425	333
144	80767	3460	248
144	81079	3475	199
144	82262	3525	189
145	5027	215	1
145	5390	230	1
145	11114	475	1
145	13148	560	1
145	17088	730	1
145	18960	810	1
145	21776	930	1
145	22808	975	1
145	24372	1040	1
145	29734	1270	1
145	30931	1320	1
145	34198	1460	1
145	35240	1505	1
145	35911	1535	1
145	37005	1580	1
145	40472	1730	1
145	56573	2420	1
145	59695	2555	1
145	60979	2610	1
145	61082	2615	1
145	61553	2635	1
145	68537	2935	1
145	69625	2980	1
145	69829	2990	1
145	71339	3055	1
145	72162	3090	1
145	74949	3210	1
145	76442	3275	1
145	77837	3335	1
145	79693	3415	1
145	79946	3425	1
145	80767	3460	1
145	81079	3475	1
145	82262	3525	1
146	5388	230	1
146	22035	940	1
146	26244	1120	1
146	26349	1125	1
147	5388	230	226
147	22035	940	932
147	26244	1120	1108
147	26349	1125	1109
148	5388	230	1
148	22035	940	1
148	26244	1120	1
148	26349	1125	1
149	5494	235	1
149	5963	255	1
149	6228	265	1
150	5494	235	231
150	5963	255	247
150	6228	265	253
151	5494	235	1
151	5963	255	1
151	6228	265	1
152	6336	270	1
152	7998	340	1
152	18749	800	1
152	19791	845	1
152	20733	885	1
152	25774	1100	1
152	28797	1230	1
152	30674	1310	1
152	31860	1360	1
152	32174	1375	1
152	36387	1555	1
152	40367	1725	1
152	43365	1855	1
152	47812	2045	1
152	48277	2065	1
152	48849	2090	1
152	49573	2120	1
152	51441	2200	1
152	54712	2340	1
152	54816	2345	1
152	56678	2425	1
152	57513	2460	1
152	59020	2525	1
152	61448	2630	1
152	63567	2720	1
152	65642	2810	1
152	67037	2870	1
152	80410	3445	1
152	81694	3500	1
152	82157	3520	1
152	82470	3535	1
152	83870	3595	1
153	6336	270	266
153	7998	340	332
153	18749	800	788
153	19791	845	829
153	20733	885	865
153	25774	1100	828
153	28797	1230	886
153	30674	1310	506
153	31860	1360	512
153	32174	1375	487
153	36387	1555	451
153	40367	1725	493
153	43365	1855	543
153	47812	2045	681
153	48277	2065	689
153	48849	2090	534
153	49573	2120	392
153	51441	2200	344
153	54712	2340	292
153	54816	2345	277
153	56678	2425	333
153	57513	2460	336
153	59020	2525	321
153	61448	2630	286
153	63567	2720	372
153	65642	2810	382
153	67037	2870	406
153	80410	3445	917
153	81694	3500	868
153	82157	3520	796
153	82470	3535	723
153	83870	3595	723
154	6336	270	1
154	7998	340	1
154	18749	800	1
154	19791	845	1
154	20733	885	1
154	25774	1100	1
154	28797	1230	1
154	30674	1310	1
154	31860	1360	1
154	32174	1375	1
154	36387	1555	1
154	40367	1725	1
154	43365	1855	1
154	47812	2045	1
154	48277	2065	1
154	48849	2090	1
154	49573	2120	1
154	51441	2200	1
154	54712	2340	1
154	54816	2345	1
154	56678	2425	1
154	57513	2460	1
154	59020	2525	1
154	61448	2630	1
154	63567	2720	1
154	65642	2810	1
154	67037	2870	1
154	80410	3445	1
154	81694	3500	1
154	82157	3520	1
154	82470	3535	1
154	83870	3595	1
155	6796	290	1
155	9145	390	1
155	9507	405	1
155	11586	495	1
155	14184	605	1
155	14288	610	1
155	16154	690	1
155	24217	1035	1
155	28223	1205	1
155	28795	1230	1
155	29522	1260	1
155	31138	1330	1
155	38963	1665	1
155	39328	1680	1
155	49421	2115	1
155	50974	2180	1
155	51908	2220	1
155	52222	2235	1
155	53052	2270	1
155	55488	2375	1
155	57617	2465	1
155	57977	2480	1
155	59227	2535	1
155	66109	2830	1
155	69158	2960	1
155	70085	3000	1
155	70399	3015	1
155	70553	3020	1
155	72271	3095	1
155	78454	3360	1
155	79378	3400	1
155	80307	3440	1
155	83192	3565	1
155	83400	3575	1
156	6796	290	286
156	9145	390	382
156	9507	405	393
156	11586	495	479
156	14184	605	585
156	14288	610	318
156	16154	690	298
156	24217	1035	627
156	28223	1205	709
156	28795	1230	622
156	29522	1260	648
156	31138	1330	638
156	38963	1665	629
156	39328	1680	472
156	49421	2115	883
156	50974	2180	916
156	51908	2220	888
156	52222	2235	567
156	53052	2270	586
156	55488	2375	259
156	57617	2465	281
156	57977	2480	256
156	59227	2535	299
156	66109	2830	558
156	69158	2960	584
156	70085	3000	532
156	70399	3015	531
156	70553	3020	484
156	72271	3095	263
156	78454	3360	396
156	79378	3400	396
156	80307	3440	424
156	83192	3565	541
156	83400	3575	479
157	6796	290	1
157	9145	390	1
157	9507	405	1
157	11586	495	1
157	14184	605	1
157	14288	610	1
157	16154	690	1
157	24217	1035	1
157	28223	1205	1
157	28795	1230	1
157	29522	1260	1
157	31138	1330	1
157	38963	1665	1
157	39328	1680	1
157	49421	2115	1
157	50974	2180	1
157	51908	2220	1
157	52222	2235	1
157	53052	2270	1
157	55488	2375	1
157	57617	2465	1
157	57977	2480	1
157	59227	2535	1
157	66109	2830	1
157	69158	2960	1
157	70085	3000	1
157	70399	3015	1
157	70553	3020	1
157	72271	3095	1
157	78454	3360	1
157	79378	3400	1
157	80307	3440	1
157	83192	3565	1
157	83400	3575	1
158	7265	310	1
158	30565	1305	1
158	31037	1325	1
158	33004	1410	1
158	43260	1850	1
158	45695	1955	1
158	46888	2005	1
159	7265	310	306
159	30565	1305	1297
159	31037	1325	1313
159	33004	1410	1394
159	43260	1850	1830
159	45695	1955	1643
159	46888	2005	697
160	7265	310	1
160	30565	1305	1
160	31037	1325	1
160	33004	1410	1
160	43260	1850	1
160	45695	1955	1
160	46888	2005	1
161	7267	310	1
161	11013	470	1
161	13930	595	1
161	16879	720	1
161	17349	740	1
161	19998	855	1
161	20731	885	1
161	21097	900	1
161	21774	930	1
161	25412	1085	1
161	27500	1175	1
161	34307	1465	1
161	34411	1470	1
161	34875	1490	1
161	34978	1495	1
162	7267	310	306
162	11013	470	462
162	13930	595	583
162	16879	720	704
162	17349	740	720
162	19998	855	543
162	20731	885	413
162	21097	900	304
162	21774	930	206
162	25412	1085	341
162	27500	1175	319
162	34307	1465	577
162	34411	1470	566
162	34875	1490	558
162	34978	1495	407
163	7267	310	1
163	11013	470	1
163	13930	595	1
163	16879	720	1
163	17349	740	1
163	19998	855	1
163	20731	885	1
163	21097	900	1
163	21774	930	1
163	25412	1085	1
163	27500	1175	1
163	34307	1465	1
163	34411	1470	1
163	34875	1490	1
163	34978	1495	1
164	8103	345	1
164	13822	590	1
164	19894	850	1
164	20266	865	1
164	20369	870	1
164	58449	2500	1
164	63777	2730	1
164	64708	2770	1
164	65640	2810	1
164	67295	2880	1
164	68072	2915	1
164	70297	3010	1
164	71496	3060	1
164	71700	3070	1
164	72990	3125	1
164	73815	3160	1
164	73919	3165	1
165	8103	345	341
165	13822	590	582
165	19894	850	838
165	20266	865	849
165	20369	870	850
165	58449	2500	2152
165	63777	2730	2138
165	64708	2770	1918
165	65640	2810	1942
165	67295	2880	2008
165	68072	2915	411
165	70297	3010	278
165	71496	3060	288
165	71700	3070	258
165	72990	3125	241
165	73815	3160	244
165	73919	3165	153
166	8103	345	1
166	13822	590	1
166	19894	850	1
166	20266	865	1
166	20369	870	1
166	58449	2500	1
166	63777	2730	1
166	64708	2770	1
166	65640	2810	1
166	67295	2880	1
166	68072	2915	1
166	70297	3010	1
166	71496	3060	1
166	71700	3070	1
166	72990	3125	1
166	73815	3160	1
166	73919	3165	1
167	9147	390	1
167	9977	425	1
167	12891	550	1
167	13460	575	1
167	25776	1100	1
167	41507	1775	1
167	43052	1840	1
167	61917	2650	1
168	9147	390	386
168	9977	425	417
168	12891	550	538
168	13460	575	559
168	25776	1100	1080
168	41507	1775	1383
168	43052	1840	1412
168	61917	2650	2098
169	9147	390	1
169	9977	425	1
169	12891	550	1
169	13460	575	1
169	25776	1100	1
169	41507	1775	1
169	43052	1840	1
169	61917	2650	1
170	10545	450	1
170	21099	900	1
170	24475	1045	1
170	29836	1275	1
170	32176	1375	1
170	33006	1410	1
170	34518	1475	1
170	38607	1650	1
170	51651	2210	1
170	52224	2235	1
170	52846	2260	1
170	54250	2320	1
171	10545	450	446
171	21099	900	892
171	24475	1045	1033
171	29836	1275	1259
171	32176	1375	1355
171	33006	1410	958
171	34518	1475	571
171	38607	1650	602
171	51651	2210	934
171	52224	2235	859
171	52846	2260	848
171	54250	2320	844
172	10545	450	1
172	21099	900	1
172	24475	1045	1
172	29836	1275	1
172	32176	1375	1
172	33006	1410	1
172	34518	1475	1
172	38607	1650	1
172	51651	2210	1
172	52224	2235	1
172	52846	2260	1
172	54250	2320	1
173	11270	480	1
173	17193	735	1
173	19222	820	1
173	36171	1545	1
173	36540	1560	1
173	36745	1570	1
173	37947	1620	1
173	44762	1915	1
173	46059	1970	1
173	53054	2270	1
173	55029	2355	1
173	56208	2405	1
174	11270	480	476
174	17193	735	727
174	19222	820	808
174	36171	1545	1529
174	36540	1560	1540
174	36745	1570	1086
174	37947	1620	884
174	44762	1915	1091
174	46059	1970	422
174	53054	2270	706
174	55029	2355	783
174	56208	2405	781
175	11270	480	1
175	17193	735	1
175	19222	820	1
175	36171	1545	1
175	36540	1560	1
175	36745	1570	1
175	37947	1620	1
175	44762	1915	1
175	46059	1970	1
175	53054	2270	1
175	55029	2355	1
175	56208	2405	1
176	11584	495	1
176	11739	500	1
176	12310	525	1
176	14653	625	1
176	19220	820	1
176	30929	1320	1
176	32328	1380	1
176	33109	1415	1
176	34044	1455	1
176	48641	2080	1
176	52118	2230	1
176	57045	2440	1
176	58293	2495	1
176	58758	2515	1
176	59847	2560	1
176	60977	2610	1
176	61343	2625	1
176	62632	2680	1
176	63412	2715	1
176	64035	2740	1
176	65277	2795	1
176	76595	3280	1
176	77165	3305	1
176	77268	3310	1
177	11584	495	491
177	11739	500	492
177	12310	525	513
177	14653	625	609
177	19220	820	800
177	30929	1320	824
177	32328	1380	876
177	33109	1415	887
177	34044	1455	827
177	48641	2080	1256
177	52118	2230	906
177	57045	2440	1056
177	58293	2495	1079
177	58758	2515	1059
177	59847	2560	476
177	60977	2610	378
177	61343	2625	181
177	62632	2680	184
177	63412	2715	199
177	64035	2740	176
177	65277	2795	183
177	76595	3280	652
177	77165	3305	621
177	77268	3310	594
178	11584	495	1
178	11739	500	1
178	12310	525	1
178	14653	625	1
178	19220	820	1
178	30929	1320	1
178	32328	1380	1
178	33109	1415	1
178	34044	1455	1
178	48641	2080	1
178	52118	2230	1
178	57045	2440	1
178	58293	2495	1
178	58758	2515	1
178	59847	2560	1
178	60977	2610	1
178	61343	2625	1
178	62632	2680	1
178	63412	2715	1
178	64035	2740	1
178	65277	2795	1
178	76595	3280	1
178	77165	3305	1
178	77268	3310	1
179	11949	510	1
179	16622	710	1
179	18127	775	1
179	18389	785	1
179	19433	830	1
179	20159	860	1
179	28118	1200	1
179	29159	1245	1
179	45848	1960	1
179	47246	2020	1
179	47706	2040	1
179	52483	2245	1
179	56416	2415	1
179	56571	2420	1
179	57721	2470	1
179	58084	2485	1
179	60616	2595	1
179	61551	2635	1
179	62172	2660	1
179	62274	2665	1
179	63203	2705	1
179	64037	2740	1
179	64604	2765	1
179	65434	2800	1
179	71597	3065	1
179	71803	3075	1
179	77735	3330	1
179	83298	3570	1
180	11949	510	506
180	16622	710	702
180	18127	775	763
180	18389	785	769
180	19433	830	810
180	20159	860	348
180	28118	1200	488
180	29159	1245	469
180	45848	1960	1172
180	47246	2020	1188
180	47706	2040	1176
180	52483	2245	1041
180	56416	2415	1167
180	56571	2420	456
180	57721	2470	446
180	58084	2485	441
180	60616	2595	347
180	61551	2635	219
180	62172	2660	236
180	62274	2665	193
180	63203	2705	217
180	64037	2740	144
180	64604	2765	129
180	65434	2800	136
180	71597	3065	397
180	71803	3075	367
180	77735	3330	586
180	83298	3570	802
181	11949	510	1
181	16622	710	1
181	18127	775	1
181	18389	785	1
181	19433	830	1
181	20159	860	1
181	28118	1200	1
181	29159	1245	1
181	45848	1960	1
181	47246	2020	1
181	47706	2040	1
181	52483	2245	1
181	56416	2415	1
181	56571	2420	1
181	57721	2470	1
181	58084	2485	1
181	60616	2595	1
181	61551	2635	1
181	62172	2660	1
181	62274	2665	1
181	63203	2705	1
181	64037	2740	1
181	64604	2765	1
181	65434	2800	1
181	71597	3065	1
181	71803	3075	1
181	77735	3330	1
181	83298	3570	1
182	13721	585	1
182	14869	635	1
182	15230	650	1
182	26456	1130	1
182	28588	1220	1
182	29838	1275	1
182	33374	1425	1
182	33943	1450	1
182	34200	1460	1
182	35702	1525	1
182	37316	1595	1
182	37470	1600	1
182	43987	1880	1
182	46161	1975	1
182	49212	2105	1
182	57148	2445	1
182	62634	2680	1
182	63671	2725	1
183	13721	585	581
183	14869	635	627
183	15230	650	638
183	26456	1130	1114
183	28588	1220	1200
183	29838	1275	687
183	33374	1425	789
183	33943	1450	798
183	34200	1460	328
183	35702	1525	301
183	37316	1595	319
183	37470	1600	172
183	43987	1880	428
183	46161	1975	511
183	49212	2105	577
183	57148	2445	849
183	62634	2680	1076
183	63671	2725	841
184	13721	585	1
184	14869	635	1
184	15230	650	1
184	26456	1130	1
184	28588	1220	1
184	29838	1275	1
184	33374	1425	1
184	33943	1450	1
184	34200	1460	1
184	35702	1525	1
184	37316	1595	1
184	37470	1600	1
184	43987	1880	1
184	46161	1975	1
184	49212	2105	1
184	57148	2445	1
184	62634	2680	1
184	63671	2725	1
185	14762	630	1
186	14762	630	626
187	14762	630	1
188	16982	725	1
188	18958	810	1
188	26560	1135	1
188	29265	1250	1
188	29520	1260	1
188	62377	2670	1
188	64143	2745	1
188	65901	2820	1
188	67035	2870	1
188	68070	2915	1
188	70871	3035	1
188	73921	3165	1
188	75978	3255	1
188	77991	3340	1
188	79586	3410	1
188	81077	3475	1
188	83296	3570	1
189	16982	725	721
189	18958	810	802
189	26560	1135	1123
189	29265	1250	1234
189	29520	1260	1240
189	62377	2670	1942
189	64143	2745	1933
189	65901	2820	1684
189	67035	2870	1618
189	68070	2915	1651
189	70871	3035	363
189	73921	3165	417
189	75978	3255	431
189	77991	3340	468
189	79586	3410	494
189	81077	3475	439
189	83296	3570	402
190	16982	725	1
190	18958	810	1
190	26560	1135	1
190	29265	1250	1
190	29520	1260	1
190	62377	2670	1
190	64143	2745	1
190	65901	2820	1
190	67035	2870	1
190	68070	2915	1
190	70871	3035	1
190	73921	3165	1
190	75978	3255	1
190	77991	3340	1
190	79586	3410	1
190	81077	3475	1
190	83296	3570	1
191	18021	770	1
191	18283	780	1
191	21566	920	1
191	22704	970	1
191	23173	990	1
191	23278	995	1
191	24940	1065	1
191	27390	1170	1
191	38965	1665	1
191	40365	1725	1
191	40727	1740	1
191	42119	1800	1
191	45021	1925	1
191	50717	2170	1
191	56418	2415	1
192	18021	770	766
192	18283	780	772
192	21566	920	908
192	22704	970	954
192	23173	990	970
192	23278	995	223
192	24940	1065	281
192	27390	1170	246
192	38965	1665	693
192	40365	1725	733
192	40727	1740	744
192	42119	1800	732
192	45021	1925	753
192	50717	2170	502
192	56418	2415	687
193	18021	770	1
193	18283	780	1
193	21566	920	1
193	22704	970	1
193	23173	990	1
193	23278	995	1
193	24940	1065	1
193	27390	1170	1
193	38965	1665	1
193	40365	1725	1
193	40727	1740	1
193	42119	1800	1
193	45021	1925	1
193	50717	2170	1
193	56418	2415	1
194	18492	790	1
194	18853	805	1
194	25046	1070	1
194	25882	1105	1
194	26089	1115	1
194	35599	1520	1
194	36276	1550	1
195	18492	790	786
195	18853	805	797
195	25046	1070	1058
195	25882	1105	1089
195	26089	1115	1095
195	35599	1520	728
195	36276	1550	742
196	18492	790	1
196	18853	805	1
196	25046	1070	1
196	25882	1105	1
196	26089	1115	1
196	35599	1520	1
196	36276	1550	1
197	18855	805	1
197	27392	1170	1
197	40003	1710	1
197	40470	1730	1
197	41042	1755	1
197	55848	2390	1
197	56888	2435	1
197	62848	2690	1
197	62949	2695	1
198	18855	805	801
198	27392	1170	1162
198	40003	1710	1698
198	40470	1730	1714
198	41042	1755	1735
198	55848	2390	1582
198	56888	2435	1263
198	62848	2690	978
198	62949	2695	963
199	18855	805	1
199	27392	1170	1
199	40003	1710	1
199	40470	1730	1
199	41042	1755	1
199	55848	2390	1
199	56888	2435	1
199	62848	2690	1
199	62949	2695	1
200	22599	965	1
201	22599	965	961
202	22599	965	1
203	25516	1090	1
203	28330	1210	1
203	33265	1420	1
203	33575	1435	1
203	33729	1440	1
203	35442	1515	1
203	36641	1565	1
203	39538	1690	1
203	39897	1705	1
203	43050	1840	1
203	43258	1850	1
203	43521	1860	1
203	43625	1865	1
203	44298	1895	1
203	46524	1990	1
203	46627	1995	1
203	48275	2065	1
203	48484	2075	1
203	52012	2225	1
203	53522	2290	1
203	56101	2400	1
203	63307	2710	1
204	25516	1090	1086
204	28330	1210	1202
204	33265	1420	1408
204	33575	1435	1419
204	33729	1440	1420
204	35442	1515	423
204	36641	1565	353
204	39538	1690	266
204	39897	1705	269
204	43050	1840	396
204	43258	1850	334
204	43521	1860	292
204	43625	1865	173
204	44298	1895	187
204	46524	1990	146
204	46627	1995	143
204	48275	2065	201
204	48484	2075	207
204	52012	2225	329
204	53522	2290	298
204	56101	2400	404
204	63307	2710	642
205	25516	1090	1
205	28330	1210	1
205	33265	1420	1
205	33575	1435	1
205	33729	1440	1
205	35442	1515	1
205	36641	1565	1
205	39538	1690	1
205	39897	1705	1
205	43050	1840	1
205	43258	1850	1
205	43521	1860	1
205	43625	1865	1
205	44298	1895	1
205	46524	1990	1
205	46627	1995	1
205	48275	2065	1
205	48484	2075	1
205	52012	2225	1
205	53522	2290	1
205	56101	2400	1
205	63307	2710	1
206	30567	1305	1
206	33731	1440	1
206	35704	1525	1
206	35806	1530	1
206	37789	1615	1
206	39176	1675	1
206	66004	2825	1
206	66931	2865	1
206	67401	2885	1
206	71128	3045	1
206	73454	3145	1
206	73559	3150	1
206	74381	3185	1
206	74586	3195	1
206	75420	3230	1
206	77629	3325	1
206	77733	3330	1
206	78099	3345	1
206	78301	3355	1
206	78560	3365	1
206	78765	3375	1
206	80870	3465	1
206	82001	3515	1
206	83767	3590	1
207	30567	1305	1301
207	33731	1440	1432
207	35704	1525	1513
207	35806	1530	1514
207	37789	1615	1595
207	39176	1675	367
207	66004	2825	1381
207	66931	2865	1337
207	67401	2885	1353
207	71128	3045	1429
207	73454	3145	1469
207	73559	3150	322
207	74381	3185	317
207	74586	3195	307
207	75420	3230	182
207	77629	3325	177
207	77733	3330	178
207	78099	3345	157
207	78301	3355	159
207	78560	3365	133
207	78765	3375	47
207	80870	3465	133
207	82001	3515	167
207	83767	3590	234
208	30567	1305	1
208	33731	1440	1
208	35704	1525	1
208	35806	1530	1
208	37789	1615	1
208	39176	1675	1
208	66004	2825	1
208	66931	2865	1
208	67401	2885	1
208	71128	3045	1
208	73454	3145	1
208	73559	3150	1
208	74381	3185	1
208	74586	3195	1
208	75420	3230	1
208	77629	3325	1
208	77733	3330	1
208	78099	3345	1
208	78301	3355	1
208	78560	3365	1
208	78765	3375	1
208	80870	3465	1
208	82001	3515	1
208	83767	3590	1
209	33111	1415	1
209	34669	1480	1
209	35135	1500	1
209	36747	1570	1
209	37111	1585	1
209	37318	1595	1
209	81435	3490	1
209	84026	3600	1
210	33111	1415	1411
210	34669	1480	1472
210	35135	1500	1488
210	36747	1570	1554
210	37111	1585	1565
210	37318	1595	179
210	81435	3490	2006
210	84026	3600	2096
211	33111	1415	1
211	34669	1480	1
211	35135	1500	1
211	36747	1570	1
211	37111	1585	1
211	37318	1595	1
211	81435	3490	1
211	84026	3600	1
212	39330	1680	1
213	39330	1680	1676
214	39330	1680	1
215	42222	1805	1
215	42690	1825	1
215	44760	1915	1
215	46057	1970	1
215	49315	2110	1
215	49885	2135	1
215	51284	2195	1
215	51543	2205	1
215	68690	2940	1
215	73351	3140	1
215	74379	3185	1
215	74483	3190	1
215	82832	3550	1
216	42222	1805	1801
216	42690	1825	1817
216	44760	1915	1903
216	46057	1970	1954
216	49315	2110	2090
216	49885	2135	327
216	51284	2195	367
216	51543	2205	289
216	68690	2940	968
216	73351	3140	1028
216	74379	3185	1049
216	74483	3190	994
216	82832	3550	1342
217	42222	1805	1
217	42690	1825	1
217	44760	1915	1
217	46057	1970	1
217	49315	2110	1
217	49885	2135	1
217	51284	2195	1
217	51543	2205	1
217	68690	2940	1
217	73351	3140	1
217	74379	3185	1
217	74483	3190	1
217	82832	3550	1
218	50249	2150	1
218	83868	3595	1
219	50249	2150	2146
219	83868	3595	3587
220	50249	2150	1
220	83868	3595	1
221	53628	2295	1
221	59018	2525	1
221	64710	2770	1
222	53628	2295	2291
222	59018	2525	2517
222	64710	2770	2758
223	53628	2295	1
223	59018	2525	1
223	64710	2770	1
224	67966	2910	1
224	79948	3425	1
224	80973	3470	1
224	82155	3520	1
224	82260	3525	1
225	67966	2910	2906
225	79948	3425	3417
225	80973	3470	3458
225	82155	3520	3504
225	82260	3525	3505
226	67966	2910	1
226	79948	3425	1
226	80973	3470	1
226	82155	3520	1
226	82260	3525	1
227	82364	3530	1
228	82364	3530	3526
229	82364	3530	1

