version 2
run FifthVerification-1-20201214-15:22:31-220948
attr configname FifthVerification
attr datetime 20201214-15:22:31
attr experiment FifthVerification
attr inifile omnetpp.ini
attr iterationvars $0=0.4
attr iterationvarsf 0.4-
attr measurement $0=0.4
attr network slottedNetwork
attr processid 220948
attr repetition 0
attr replication #0
attr resultdir results
attr runnumber 1
attr seedset 1
param **.numTransmitters 50
param **.numChannels 2
param **.bufferSize 5
param **.sendProbability 0.4
param **.expMean 4s
param **.timeSlotSize 5s
param **.thresh 20s
param **.deterministicInterarrivalTime true
param **.numTransmitters 1
param **.numChannels 1
param **.bufferSize 5
param **.sendProbability 1
param **.expMean 5s
param **.timeSlotSize 5s
param **.thresh 20s
param **.deterministicInterarrivalTime false

vector 0 slottedNetwork.transmitters[0] numPacketCreated:vector ETV
attr source numPacketCreatedSignal
vector 1 slottedNetwork.transmitters[1] numPacketCreated:vector ETV
attr source numPacketCreatedSignal
vector 2 slottedNetwork.transmitters[2] numPacketCreated:vector ETV
attr source numPacketCreatedSignal
vector 3 slottedNetwork.transmitters[3] numPacketCreated:vector ETV
attr source numPacketCreatedSignal
vector 4 slottedNetwork.transmitters[4] numPacketCreated:vector ETV
attr source numPacketCreatedSignal
vector 5 slottedNetwork.transmitters[5] numPacketCreated:vector ETV
attr source numPacketCreatedSignal
vector 6 slottedNetwork.transmitters[6] numPacketCreated:vector ETV
attr source numPacketCreatedSignal
vector 7 slottedNetwork.transmitters[7] numPacketCreated:vector ETV
attr source numPacketCreatedSignal
vector 8 slottedNetwork.transmitters[8] numPacketCreated:vector ETV
attr source numPacketCreatedSignal
vector 9 slottedNetwork.transmitters[9] numPacketCreated:vector ETV
attr source numPacketCreatedSignal
vector 10 slottedNetwork.transmitters[10] numPacketCreated:vector ETV
attr source numPacketCreatedSignal
vector 11 slottedNetwork.transmitters[11] numPacketCreated:vector ETV
attr source numPacketCreatedSignal
vector 12 slottedNetwork.transmitters[12] numPacketCreated:vector ETV
attr source numPacketCreatedSignal
vector 13 slottedNetwork.transmitters[13] numPacketCreated:vector ETV
attr source numPacketCreatedSignal
vector 14 slottedNetwork.transmitters[14] numPacketCreated:vector ETV
attr source numPacketCreatedSignal
vector 15 slottedNetwork.transmitters[15] numPacketCreated:vector ETV
attr source numPacketCreatedSignal
vector 16 slottedNetwork.transmitters[16] numPacketCreated:vector ETV
attr source numPacketCreatedSignal
vector 17 slottedNetwork.transmitters[17] numPacketCreated:vector ETV
attr source numPacketCreatedSignal
vector 18 slottedNetwork.transmitters[18] numPacketCreated:vector ETV
attr source numPacketCreatedSignal
vector 19 slottedNetwork.transmitters[19] numPacketCreated:vector ETV
attr source numPacketCreatedSignal
vector 20 slottedNetwork.transmitters[20] numPacketCreated:vector ETV
attr source numPacketCreatedSignal
vector 21 slottedNetwork.transmitters[21] numPacketCreated:vector ETV
attr source numPacketCreatedSignal
vector 22 slottedNetwork.transmitters[22] numPacketCreated:vector ETV
attr source numPacketCreatedSignal
vector 23 slottedNetwork.transmitters[23] numPacketCreated:vector ETV
attr source numPacketCreatedSignal
vector 24 slottedNetwork.transmitters[24] numPacketCreated:vector ETV
attr source numPacketCreatedSignal
vector 25 slottedNetwork.transmitters[25] numPacketCreated:vector ETV
attr source numPacketCreatedSignal
vector 26 slottedNetwork.transmitters[26] numPacketCreated:vector ETV
attr source numPacketCreatedSignal
vector 27 slottedNetwork.transmitters[27] numPacketCreated:vector ETV
attr source numPacketCreatedSignal
vector 28 slottedNetwork.transmitters[28] numPacketCreated:vector ETV
attr source numPacketCreatedSignal
vector 29 slottedNetwork.transmitters[29] numPacketCreated:vector ETV
attr source numPacketCreatedSignal
vector 30 slottedNetwork.transmitters[30] numPacketCreated:vector ETV
attr source numPacketCreatedSignal
vector 31 slottedNetwork.transmitters[31] numPacketCreated:vector ETV
attr source numPacketCreatedSignal
vector 32 slottedNetwork.transmitters[32] numPacketCreated:vector ETV
attr source numPacketCreatedSignal
vector 33 slottedNetwork.transmitters[33] numPacketCreated:vector ETV
attr source numPacketCreatedSignal
vector 34 slottedNetwork.transmitters[34] numPacketCreated:vector ETV
attr source numPacketCreatedSignal
vector 35 slottedNetwork.transmitters[35] numPacketCreated:vector ETV
attr source numPacketCreatedSignal
vector 36 slottedNetwork.transmitters[36] numPacketCreated:vector ETV
attr source numPacketCreatedSignal
vector 37 slottedNetwork.transmitters[37] numPacketCreated:vector ETV
attr source numPacketCreatedSignal
vector 38 slottedNetwork.transmitters[38] numPacketCreated:vector ETV
attr source numPacketCreatedSignal
vector 39 slottedNetwork.transmitters[39] numPacketCreated:vector ETV
attr source numPacketCreatedSignal
vector 40 slottedNetwork.transmitters[40] numPacketCreated:vector ETV
attr source numPacketCreatedSignal
vector 41 slottedNetwork.transmitters[41] numPacketCreated:vector ETV
attr source numPacketCreatedSignal
vector 42 slottedNetwork.transmitters[42] numPacketCreated:vector ETV
attr source numPacketCreatedSignal
vector 43 slottedNetwork.transmitters[43] numPacketCreated:vector ETV
attr source numPacketCreatedSignal
vector 44 slottedNetwork.transmitters[44] numPacketCreated:vector ETV
attr source numPacketCreatedSignal
vector 45 slottedNetwork.transmitters[45] numPacketCreated:vector ETV
attr source numPacketCreatedSignal
vector 46 slottedNetwork.transmitters[46] numPacketCreated:vector ETV
attr source numPacketCreatedSignal
vector 47 slottedNetwork.transmitters[47] numPacketCreated:vector ETV
attr source numPacketCreatedSignal
vector 48 slottedNetwork.transmitters[48] numPacketCreated:vector ETV
attr source numPacketCreatedSignal
vector 49 slottedNetwork.transmitters[49] numPacketCreated:vector ETV
attr source numPacketCreatedSignal
vector 50 slottedNetwork.ch throughput:vector ETV
attr source throughputSignal
vector 51 slottedNetwork.transmitters[0] numPacketDiscarded:vector ETV
attr source numPacketDiscardedSignal
vector 52 slottedNetwork.transmitters[1] numPacketDiscarded:vector ETV
attr source numPacketDiscardedSignal
vector 53 slottedNetwork.transmitters[2] numPacketDiscarded:vector ETV
attr source numPacketDiscardedSignal
vector 54 slottedNetwork.transmitters[3] numPacketDiscarded:vector ETV
attr source numPacketDiscardedSignal
vector 55 slottedNetwork.transmitters[4] numPacketDiscarded:vector ETV
attr source numPacketDiscardedSignal
vector 56 slottedNetwork.transmitters[5] numPacketDiscarded:vector ETV
attr source numPacketDiscardedSignal
vector 57 slottedNetwork.transmitters[6] numPacketDiscarded:vector ETV
attr source numPacketDiscardedSignal
vector 58 slottedNetwork.transmitters[7] numPacketDiscarded:vector ETV
attr source numPacketDiscardedSignal
vector 59 slottedNetwork.transmitters[8] numPacketDiscarded:vector ETV
attr source numPacketDiscardedSignal
vector 60 slottedNetwork.transmitters[9] numPacketDiscarded:vector ETV
attr source numPacketDiscardedSignal
vector 61 slottedNetwork.transmitters[10] numPacketDiscarded:vector ETV
attr source numPacketDiscardedSignal
vector 62 slottedNetwork.transmitters[11] numPacketDiscarded:vector ETV
attr source numPacketDiscardedSignal
vector 63 slottedNetwork.transmitters[12] numPacketDiscarded:vector ETV
attr source numPacketDiscardedSignal
vector 64 slottedNetwork.transmitters[13] numPacketDiscarded:vector ETV
attr source numPacketDiscardedSignal
vector 65 slottedNetwork.transmitters[14] numPacketDiscarded:vector ETV
attr source numPacketDiscardedSignal
vector 66 slottedNetwork.transmitters[15] numPacketDiscarded:vector ETV
attr source numPacketDiscardedSignal
vector 67 slottedNetwork.transmitters[16] numPacketDiscarded:vector ETV
attr source numPacketDiscardedSignal
vector 68 slottedNetwork.transmitters[17] numPacketDiscarded:vector ETV
attr source numPacketDiscardedSignal
vector 69 slottedNetwork.transmitters[18] numPacketDiscarded:vector ETV
attr source numPacketDiscardedSignal
vector 70 slottedNetwork.transmitters[19] numPacketDiscarded:vector ETV
attr source numPacketDiscardedSignal
vector 71 slottedNetwork.transmitters[20] numPacketDiscarded:vector ETV
attr source numPacketDiscardedSignal
vector 72 slottedNetwork.transmitters[21] numPacketDiscarded:vector ETV
attr source numPacketDiscardedSignal
vector 73 slottedNetwork.transmitters[22] numPacketDiscarded:vector ETV
attr source numPacketDiscardedSignal
vector 74 slottedNetwork.transmitters[23] numPacketDiscarded:vector ETV
attr source numPacketDiscardedSignal
vector 75 slottedNetwork.transmitters[24] numPacketDiscarded:vector ETV
attr source numPacketDiscardedSignal
vector 76 slottedNetwork.transmitters[25] numPacketDiscarded:vector ETV
attr source numPacketDiscardedSignal
vector 77 slottedNetwork.transmitters[26] numPacketDiscarded:vector ETV
attr source numPacketDiscardedSignal
vector 78 slottedNetwork.transmitters[27] numPacketDiscarded:vector ETV
attr source numPacketDiscardedSignal
vector 79 slottedNetwork.transmitters[28] numPacketDiscarded:vector ETV
attr source numPacketDiscardedSignal
vector 80 slottedNetwork.transmitters[29] numPacketDiscarded:vector ETV
attr source numPacketDiscardedSignal
vector 81 slottedNetwork.transmitters[30] numPacketDiscarded:vector ETV
attr source numPacketDiscardedSignal
vector 82 slottedNetwork.transmitters[31] numPacketDiscarded:vector ETV
attr source numPacketDiscardedSignal
vector 83 slottedNetwork.transmitters[32] numPacketDiscarded:vector ETV
attr source numPacketDiscardedSignal
vector 84 slottedNetwork.transmitters[33] numPacketDiscarded:vector ETV
attr source numPacketDiscardedSignal
vector 85 slottedNetwork.transmitters[34] numPacketDiscarded:vector ETV
attr source numPacketDiscardedSignal
vector 86 slottedNetwork.transmitters[35] numPacketDiscarded:vector ETV
attr source numPacketDiscardedSignal
vector 87 slottedNetwork.transmitters[36] numPacketDiscarded:vector ETV
attr source numPacketDiscardedSignal
vector 88 slottedNetwork.transmitters[37] numPacketDiscarded:vector ETV
attr source numPacketDiscardedSignal
vector 89 slottedNetwork.transmitters[38] numPacketDiscarded:vector ETV
attr source numPacketDiscardedSignal
vector 90 slottedNetwork.transmitters[39] numPacketDiscarded:vector ETV
attr source numPacketDiscardedSignal
vector 91 slottedNetwork.transmitters[40] numPacketDiscarded:vector ETV
attr source numPacketDiscardedSignal
vector 92 slottedNetwork.transmitters[41] numPacketDiscarded:vector ETV
attr source numPacketDiscardedSignal
vector 93 slottedNetwork.transmitters[42] numPacketDiscarded:vector ETV
attr source numPacketDiscardedSignal
vector 94 slottedNetwork.transmitters[43] numPacketDiscarded:vector ETV
attr source numPacketDiscardedSignal
vector 95 slottedNetwork.transmitters[44] numPacketDiscarded:vector ETV
attr source numPacketDiscardedSignal
vector 96 slottedNetwork.transmitters[45] numPacketDiscarded:vector ETV
attr source numPacketDiscardedSignal
vector 97 slottedNetwork.transmitters[46] numPacketDiscarded:vector ETV
attr source numPacketDiscardedSignal
vector 98 slottedNetwork.transmitters[47] numPacketDiscarded:vector ETV
attr source numPacketDiscardedSignal
vector 99 slottedNetwork.transmitters[48] numPacketDiscarded:vector ETV
attr source numPacketDiscardedSignal
vector 100 slottedNetwork.transmitters[49] numPacketDiscarded:vector ETV
attr source numPacketDiscardedSignal
vector 101 slottedNetwork.receivers[21] numPacketReceived:vector ETV
attr source numPacketReceivedSignal
vector 102 slottedNetwork.receivers[21] responseTime:vector ETV
attr source responseTimeSignal
vector 103 slottedNetwork.receivers[21] threshold:vector ETV
attr source thresholdSignal
vector 104 slottedNetwork.receivers[22] numPacketReceived:vector ETV
attr source numPacketReceivedSignal
vector 105 slottedNetwork.receivers[22] responseTime:vector ETV
attr source responseTimeSignal
vector 106 slottedNetwork.receivers[22] threshold:vector ETV
attr source thresholdSignal
vector 107 slottedNetwork.receivers[37] numPacketReceived:vector ETV
attr source numPacketReceivedSignal
vector 108 slottedNetwork.receivers[37] responseTime:vector ETV
attr source responseTimeSignal
vector 109 slottedNetwork.receivers[37] threshold:vector ETV
attr source thresholdSignal
vector 110 slottedNetwork.receivers[28] numPacketReceived:vector ETV
attr source numPacketReceivedSignal
vector 111 slottedNetwork.receivers[28] responseTime:vector ETV
attr source responseTimeSignal
vector 112 slottedNetwork.receivers[28] threshold:vector ETV
attr source thresholdSignal
vector 113 slottedNetwork.receivers[33] numPacketReceived:vector ETV
attr source numPacketReceivedSignal
vector 114 slottedNetwork.receivers[33] responseTime:vector ETV
attr source responseTimeSignal
vector 115 slottedNetwork.receivers[33] threshold:vector ETV
attr source thresholdSignal
vector 116 slottedNetwork.receivers[11] numPacketReceived:vector ETV
attr source numPacketReceivedSignal
vector 117 slottedNetwork.receivers[11] responseTime:vector ETV
attr source responseTimeSignal
vector 118 slottedNetwork.receivers[11] threshold:vector ETV
attr source thresholdSignal
vector 119 slottedNetwork.receivers[16] numPacketReceived:vector ETV
attr source numPacketReceivedSignal
vector 120 slottedNetwork.receivers[16] responseTime:vector ETV
attr source responseTimeSignal
vector 121 slottedNetwork.receivers[16] threshold:vector ETV
attr source thresholdSignal
vector 122 slottedNetwork.receivers[30] numPacketReceived:vector ETV
attr source numPacketReceivedSignal
vector 123 slottedNetwork.receivers[30] responseTime:vector ETV
attr source responseTimeSignal
vector 124 slottedNetwork.receivers[30] threshold:vector ETV
attr source thresholdSignal
vector 125 slottedNetwork.receivers[1] numPacketReceived:vector ETV
attr source numPacketReceivedSignal
vector 126 slottedNetwork.receivers[1] responseTime:vector ETV
attr source responseTimeSignal
vector 127 slottedNetwork.receivers[1] threshold:vector ETV
attr source thresholdSignal
vector 128 slottedNetwork.receivers[13] numPacketReceived:vector ETV
attr source numPacketReceivedSignal
vector 129 slottedNetwork.receivers[13] responseTime:vector ETV
attr source responseTimeSignal
vector 130 slottedNetwork.receivers[13] threshold:vector ETV
attr source thresholdSignal
vector 131 slottedNetwork.receivers[39] numPacketReceived:vector ETV
attr source numPacketReceivedSignal
vector 132 slottedNetwork.receivers[39] responseTime:vector ETV
attr source responseTimeSignal
vector 133 slottedNetwork.receivers[39] threshold:vector ETV
attr source thresholdSignal
vector 134 slottedNetwork.receivers[12] numPacketReceived:vector ETV
attr source numPacketReceivedSignal
vector 135 slottedNetwork.receivers[12] responseTime:vector ETV
attr source responseTimeSignal
vector 136 slottedNetwork.receivers[12] threshold:vector ETV
attr source thresholdSignal
vector 137 slottedNetwork.receivers[38] numPacketReceived:vector ETV
attr source numPacketReceivedSignal
vector 138 slottedNetwork.receivers[38] responseTime:vector ETV
attr source responseTimeSignal
vector 139 slottedNetwork.receivers[38] threshold:vector ETV
attr source thresholdSignal
vector 140 slottedNetwork.receivers[24] numPacketReceived:vector ETV
attr source numPacketReceivedSignal
vector 141 slottedNetwork.receivers[24] responseTime:vector ETV
attr source responseTimeSignal
vector 142 slottedNetwork.receivers[24] threshold:vector ETV
attr source thresholdSignal
vector 143 slottedNetwork.receivers[47] numPacketReceived:vector ETV
attr source numPacketReceivedSignal
vector 144 slottedNetwork.receivers[47] responseTime:vector ETV
attr source responseTimeSignal
vector 145 slottedNetwork.receivers[47] threshold:vector ETV
attr source thresholdSignal
vector 146 slottedNetwork.receivers[19] numPacketReceived:vector ETV
attr source numPacketReceivedSignal
vector 147 slottedNetwork.receivers[19] responseTime:vector ETV
attr source responseTimeSignal
vector 148 slottedNetwork.receivers[19] threshold:vector ETV
attr source thresholdSignal
vector 149 slottedNetwork.receivers[0] numPacketReceived:vector ETV
attr source numPacketReceivedSignal
vector 150 slottedNetwork.receivers[0] responseTime:vector ETV
attr source responseTimeSignal
vector 151 slottedNetwork.receivers[0] threshold:vector ETV
attr source thresholdSignal
vector 152 slottedNetwork.receivers[8] numPacketReceived:vector ETV
attr source numPacketReceivedSignal
vector 153 slottedNetwork.receivers[8] responseTime:vector ETV
attr source responseTimeSignal
vector 154 slottedNetwork.receivers[8] threshold:vector ETV
attr source thresholdSignal
vector 155 slottedNetwork.receivers[40] numPacketReceived:vector ETV
attr source numPacketReceivedSignal
vector 156 slottedNetwork.receivers[40] responseTime:vector ETV
attr source responseTimeSignal
vector 157 slottedNetwork.receivers[40] threshold:vector ETV
attr source thresholdSignal
vector 158 slottedNetwork.receivers[4] numPacketReceived:vector ETV
attr source numPacketReceivedSignal
vector 159 slottedNetwork.receivers[4] responseTime:vector ETV
attr source responseTimeSignal
vector 160 slottedNetwork.receivers[4] threshold:vector ETV
attr source thresholdSignal
vector 161 slottedNetwork.receivers[43] numPacketReceived:vector ETV
attr source numPacketReceivedSignal
vector 162 slottedNetwork.receivers[43] responseTime:vector ETV
attr source responseTimeSignal
vector 163 slottedNetwork.receivers[43] threshold:vector ETV
attr source thresholdSignal
vector 164 slottedNetwork.receivers[27] numPacketReceived:vector ETV
attr source numPacketReceivedSignal
vector 165 slottedNetwork.receivers[27] responseTime:vector ETV
attr source responseTimeSignal
vector 166 slottedNetwork.receivers[27] threshold:vector ETV
attr source thresholdSignal
vector 167 slottedNetwork.receivers[46] numPacketReceived:vector ETV
attr source numPacketReceivedSignal
vector 168 slottedNetwork.receivers[46] responseTime:vector ETV
attr source responseTimeSignal
vector 169 slottedNetwork.receivers[46] threshold:vector ETV
attr source thresholdSignal
vector 170 slottedNetwork.receivers[18] numPacketReceived:vector ETV
attr source numPacketReceivedSignal
vector 171 slottedNetwork.receivers[18] responseTime:vector ETV
attr source responseTimeSignal
vector 172 slottedNetwork.receivers[18] threshold:vector ETV
attr source thresholdSignal
vector 173 slottedNetwork.receivers[9] numPacketReceived:vector ETV
attr source numPacketReceivedSignal
vector 174 slottedNetwork.receivers[9] responseTime:vector ETV
attr source responseTimeSignal
vector 175 slottedNetwork.receivers[9] threshold:vector ETV
attr source thresholdSignal
vector 176 slottedNetwork.receivers[23] numPacketReceived:vector ETV
attr source numPacketReceivedSignal
vector 177 slottedNetwork.receivers[23] responseTime:vector ETV
attr source responseTimeSignal
vector 178 slottedNetwork.receivers[23] threshold:vector ETV
attr source thresholdSignal
vector 179 slottedNetwork.receivers[31] numPacketReceived:vector ETV
attr source numPacketReceivedSignal
vector 180 slottedNetwork.receivers[31] responseTime:vector ETV
attr source responseTimeSignal
vector 181 slottedNetwork.receivers[31] threshold:vector ETV
attr source thresholdSignal
vector 182 slottedNetwork.receivers[45] numPacketReceived:vector ETV
attr source numPacketReceivedSignal
vector 183 slottedNetwork.receivers[45] responseTime:vector ETV
attr source responseTimeSignal
vector 184 slottedNetwork.receivers[45] threshold:vector ETV
attr source thresholdSignal
vector 185 slottedNetwork.receivers[10] numPacketReceived:vector ETV
attr source numPacketReceivedSignal
vector 186 slottedNetwork.receivers[10] responseTime:vector ETV
attr source responseTimeSignal
vector 187 slottedNetwork.receivers[10] threshold:vector ETV
attr source thresholdSignal
vector 188 slottedNetwork.receivers[20] numPacketReceived:vector ETV
attr source numPacketReceivedSignal
vector 189 slottedNetwork.receivers[20] responseTime:vector ETV
attr source responseTimeSignal
vector 190 slottedNetwork.receivers[20] threshold:vector ETV
attr source thresholdSignal
vector 191 slottedNetwork.receivers[25] numPacketReceived:vector ETV
attr source numPacketReceivedSignal
vector 192 slottedNetwork.receivers[25] responseTime:vector ETV
attr source responseTimeSignal
vector 193 slottedNetwork.receivers[25] threshold:vector ETV
attr source thresholdSignal
vector 194 slottedNetwork.receivers[17] numPacketReceived:vector ETV
attr source numPacketReceivedSignal
vector 195 slottedNetwork.receivers[17] responseTime:vector ETV
attr source responseTimeSignal
vector 196 slottedNetwork.receivers[17] threshold:vector ETV
attr source thresholdSignal
vector 197 slottedNetwork.receivers[44] numPacketReceived:vector ETV
attr source numPacketReceivedSignal
vector 198 slottedNetwork.receivers[44] responseTime:vector ETV
attr source responseTimeSignal
vector 199 slottedNetwork.receivers[44] threshold:vector ETV
attr source thresholdSignal
vector 200 slottedNetwork.receivers[48] numPacketReceived:vector ETV
attr source numPacketReceivedSignal
vector 201 slottedNetwork.receivers[48] responseTime:vector ETV
attr source responseTimeSignal
vector 202 slottedNetwork.receivers[48] threshold:vector ETV
attr source thresholdSignal
vector 203 slottedNetwork.receivers[14] numPacketReceived:vector ETV
attr source numPacketReceivedSignal
vector 204 slottedNetwork.receivers[14] responseTime:vector ETV
attr source responseTimeSignal
vector 205 slottedNetwork.receivers[14] threshold:vector ETV
attr source thresholdSignal
vector 206 slottedNetwork.receivers[3] numPacketReceived:vector ETV
attr source numPacketReceivedSignal
vector 207 slottedNetwork.receivers[3] responseTime:vector ETV
attr source responseTimeSignal
vector 208 slottedNetwork.receivers[3] threshold:vector ETV
attr source thresholdSignal
vector 209 slottedNetwork.receivers[49] numPacketReceived:vector ETV
attr source numPacketReceivedSignal
vector 210 slottedNetwork.receivers[49] responseTime:vector ETV
attr source responseTimeSignal
vector 211 slottedNetwork.receivers[49] threshold:vector ETV
attr source thresholdSignal
vector 212 slottedNetwork.receivers[29] numPacketReceived:vector ETV
attr source numPacketReceivedSignal
vector 213 slottedNetwork.receivers[29] responseTime:vector ETV
attr source responseTimeSignal
vector 214 slottedNetwork.receivers[29] threshold:vector ETV
attr source thresholdSignal
vector 215 slottedNetwork.receivers[6] numPacketReceived:vector ETV
attr source numPacketReceivedSignal
vector 216 slottedNetwork.receivers[6] responseTime:vector ETV
attr source responseTimeSignal
vector 217 slottedNetwork.receivers[6] threshold:vector ETV
attr source thresholdSignal
vector 218 slottedNetwork.receivers[26] numPacketReceived:vector ETV
attr source numPacketReceivedSignal
vector 219 slottedNetwork.receivers[26] responseTime:vector ETV
attr source responseTimeSignal
vector 220 slottedNetwork.receivers[26] threshold:vector ETV
attr source thresholdSignal
0	1	4	1
0	120	8	1
0	234	12	1
0	346	16	1
0	397	20	1
0	503	24	1
0	606	28	1
0	720	32	1
0	831	36	1
0	882	40	1
0	988	44	1
0	1097	48	1
0	1206	52	1
0	1310	56	1
0	1361	60	1
0	1469	64	1
0	1575	68	1
0	1683	72	1
0	1789	76	1
0	1840	80	1
0	1945	84	1
0	2049	88	1
0	2160	92	1
0	2266	96	1
0	2317	100	1
0	2426	104	1
0	2528	108	1
0	2632	112	1
0	2738	116	1
0	2789	120	1
0	2892	124	1
0	2997	128	1
0	3105	132	1
0	3211	136	1
0	3262	140	1
0	3368	144	1
0	3471	148	1
0	3579	152	1
0	3685	156	1
0	3736	160	1
0	3842	164	1
0	3946	168	1
0	4049	172	1
0	4156	176	1
0	4207	180	1
0	4310	184	1
0	4414	188	1
0	4522	192	1
0	4625	196	1
0	4676	200	1
0	4782	204	1
0	4888	208	1
0	4996	212	1
0	5101	216	1
0	5152	220	1
0	5253	224	1
0	5358	228	1
0	5460	232	1
0	5566	236	1
0	5617	240	1
0	5720	244	1
0	5827	248	1
0	5930	252	1
0	6037	256	1
0	6088	260	1
0	6189	264	1
0	6294	268	1
0	6400	272	1
0	6503	276	1
0	6554	280	1
0	6658	284	1
0	6762	288	1
0	6867	292	1
0	6973	296	1
0	7024	300	1
0	7128	304	1
0	7232	308	1
0	7340	312	1
0	7444	316	1
0	7495	320	1
0	7600	324	1
0	7705	328	1
0	7815	332	1
0	7917	336	1
0	7968	340	1
0	8071	344	1
0	8179	348	1
0	8285	352	1
0	8390	356	1
0	8441	360	1
0	8542	364	1
0	8647	368	1
0	8750	372	1
0	8856	376	1
0	8907	380	1
0	9010	384	1
0	9116	388	1
0	9221	392	1
0	9324	396	1
0	9375	400	1
0	9480	404	1
0	9582	408	1
0	9685	412	1
0	9791	416	1
0	9842	420	1
0	9946	424	1
0	10049	428	1
0	10155	432	1
0	10262	436	1
0	10313	440	1
0	10416	444	1
0	10524	448	1
0	10625	452	1
0	10728	456	1
0	10779	460	1
0	10882	464	1
0	10989	468	1
0	11091	472	1
0	11200	476	1
0	11251	480	1
0	11354	484	1
0	11457	488	1
0	11564	492	1
0	11665	496	1
0	11716	500	1
0	11820	504	1
0	11927	508	1
0	12031	512	1
0	12136	516	1
0	12187	520	1
0	12291	524	1
0	12393	528	1
0	12498	532	1
0	12602	536	1
0	12653	540	1
0	12755	544	1
0	12859	548	1
0	12964	552	1
0	13069	556	1
0	13120	560	1
0	13226	564	1
0	13329	568	1
0	13436	572	1
0	13539	576	1
0	13590	580	1
0	13691	584	1
0	13794	588	1
0	13901	592	1
0	14003	596	1
0	14054	600	1
0	14157	604	1
0	14259	608	1
0	14366	612	1
0	14474	616	1
0	14525	620	1
0	14625	624	1
0	14727	628	1
0	14830	632	1
0	14935	636	1
0	14986	640	1
0	15091	644	1
0	15195	648	1
0	15298	652	1
0	15401	656	1
0	15452	660	1
0	15553	664	1
0	15657	668	1
0	15759	672	1
0	15862	676	1
0	15913	680	1
0	16021	684	1
0	16123	688	1
0	16229	692	1
0	16332	696	1
0	16383	700	1
0	16486	704	1
0	16591	708	1
0	16695	712	1
0	16801	716	1
0	16852	720	1
0	16956	724	1
0	17059	728	1
0	17166	732	1
0	17270	736	1
0	17321	740	1
0	17425	744	1
0	17533	748	1
0	17635	752	1
0	17743	756	1
0	17794	760	1
0	17896	764	1
0	18002	768	1
0	18105	772	1
0	18210	776	1
0	18261	780	1
0	18365	784	1
0	18466	788	1
0	18568	792	1
0	18672	796	1
0	18723	800	1
0	18824	804	1
0	18931	808	1
0	19036	812	1
0	19139	816	1
0	19190	820	1
0	19291	824	1
0	19395	828	1
0	19500	832	1
0	19604	836	1
0	19655	840	1
0	19759	844	1
0	19862	848	1
0	19964	852	1
0	20067	856	1
0	20118	860	1
0	20221	864	1
0	20328	868	1
0	20430	872	1
0	20536	876	1
0	20587	880	1
0	20692	884	1
0	20796	888	1
0	20902	892	1
0	21009	896	1
0	21060	900	1
0	21166	904	1
0	21270	908	1
0	21373	912	1
0	21477	916	1
0	21528	920	1
0	21633	924	1
0	21736	928	1
0	21839	932	1
0	21943	936	1
0	21994	940	1
0	22099	944	1
0	22206	948	1
0	22312	952	1
0	22416	956	1
0	22467	960	1
0	22570	964	1
0	22672	968	1
0	22777	972	1
0	22882	976	1
0	22933	980	1
0	23038	984	1
0	23143	988	1
0	23247	992	1
0	23353	996	1
0	23404	1000	1
0	23507	1004	1
0	23612	1008	1
0	23715	1012	1
0	23820	1016	1
0	23871	1020	1
0	23981	1024	1
0	24085	1028	1
0	24191	1032	1
0	24295	1036	1
0	24346	1040	1
0	24450	1044	1
0	24555	1048	1
0	24661	1052	1
0	24763	1056	1
0	24814	1060	1
0	24918	1064	1
0	25023	1068	1
0	25127	1072	1
0	25233	1076	1
0	25284	1080	1
0	25392	1084	1
0	25493	1088	1
0	25594	1092	1
0	25697	1096	1
0	25748	1100	1
0	25850	1104	1
0	25956	1108	1
0	26060	1112	1
0	26165	1116	1
0	26216	1120	1
0	26322	1124	1
0	26423	1128	1
0	26528	1132	1
0	26630	1136	1
0	26681	1140	1
0	26788	1144	1
0	26892	1148	1
0	26996	1152	1
0	27098	1156	1
0	27149	1160	1
0	27252	1164	1
0	27354	1168	1
0	27457	1172	1
0	27561	1176	1
0	27612	1180	1
0	27712	1184	1
0	27816	1188	1
0	27923	1192	1
0	28026	1196	1
0	28077	1200	1
0	28181	1204	1
0	28285	1208	1
0	28389	1212	1
0	28494	1216	1
0	28545	1220	1
0	28646	1224	1
0	28751	1228	1
0	28854	1232	1
0	28957	1236	1
0	29008	1240	1
0	29109	1244	1
0	29213	1248	1
0	29318	1252	1
0	29423	1256	1
0	29474	1260	1
0	29578	1264	1
0	29685	1268	1
0	29794	1272	1
0	29897	1276	1
0	29948	1280	1
0	30050	1284	1
0	30155	1288	1
0	30256	1292	1
0	30359	1296	1
0	30410	1300	1
0	30514	1304	1
0	30618	1308	1
0	30723	1312	1
0	30827	1316	1
0	30878	1320	1
0	30981	1324	1
0	31084	1328	1
0	31192	1332	1
0	31294	1336	1
0	31345	1340	1
0	31448	1344	1
0	31557	1348	1
0	31662	1352	1
0	31767	1356	1
0	31818	1360	1
0	31923	1364	1
0	32028	1368	1
0	32133	1372	1
0	32236	1376	1
0	32287	1380	1
0	32391	1384	1
0	32493	1388	1
0	32595	1392	1
0	32699	1396	1
0	32750	1400	1
0	32853	1404	1
0	32955	1408	1
0	33060	1412	1
0	33165	1416	1
0	33216	1420	1
0	33318	1424	1
0	33423	1428	1
0	33529	1432	1
0	33633	1436	1
0	33684	1440	1
0	33785	1444	1
0	33887	1448	1
0	33995	1452	1
0	34100	1456	1
0	34151	1460	1
0	34254	1464	1
0	34355	1468	1
0	34456	1472	1
0	34561	1476	1
0	34612	1480	1
0	34713	1484	1
0	34815	1488	1
0	34918	1492	1
0	35021	1496	1
0	35072	1500	1
0	35178	1504	1
0	35279	1508	1
0	35382	1512	1
0	35484	1516	1
0	35535	1520	1
0	35638	1524	1
0	35743	1528	1
0	35846	1532	1
0	35950	1536	1
0	36001	1540	1
0	36106	1544	1
0	36211	1548	1
0	36317	1552	1
0	36423	1556	1
0	36474	1560	1
0	36575	1564	1
0	36681	1568	1
0	36783	1572	1
0	36886	1576	1
0	36937	1580	1
0	37041	1584	1
0	37145	1588	1
0	37252	1592	1
0	37354	1596	1
0	37405	1600	1
0	37507	1604	1
0	37612	1608	1
0	37719	1612	1
0	37825	1616	1
0	37876	1620	1
0	37976	1624	1
0	38078	1628	1
0	38183	1632	1
0	38290	1636	1
0	38341	1640	1
0	38442	1644	1
0	38547	1648	1
0	38649	1652	1
0	38751	1656	1
0	38802	1660	1
0	38905	1664	1
0	39011	1668	1
0	39115	1672	1
0	39222	1676	1
0	39273	1680	1
0	39374	1684	1
0	39480	1688	1
0	39584	1692	1
0	39687	1696	1
0	39738	1700	1
0	39842	1704	1
0	39946	1708	1
0	40054	1712	1
0	40158	1716	1
0	40209	1720	1
0	40313	1724	1
0	40417	1728	1
0	40519	1732	1
0	40622	1736	1
0	40673	1740	1
0	40780	1744	1
0	40883	1748	1
0	40991	1752	1
0	41095	1756	1
0	41146	1760	1
0	41248	1764	1
0	41352	1768	1
0	41456	1772	1
0	41560	1776	1
0	41611	1780	1
0	41714	1784	1
0	41817	1788	1
0	41922	1792	1
0	42026	1796	1
0	42077	1800	1
0	42181	1804	1
0	42285	1808	1
0	42390	1812	1
0	42494	1816	1
0	42545	1820	1
0	42648	1824	1
0	42755	1828	1
0	42859	1832	1
0	42962	1836	1
0	43013	1840	1
0	43117	1844	1
0	43222	1848	1
0	43329	1852	1
0	43432	1856	1
0	43483	1860	1
0	43584	1864	1
0	43688	1868	1
0	43794	1872	1
0	43898	1876	1
0	43949	1880	1
0	44050	1884	1
0	44154	1888	1
0	44259	1892	1
0	44365	1896	1
0	44416	1900	1
0	44523	1904	1
0	44626	1908	1
0	44731	1912	1
0	44837	1916	1
0	44888	1920	1
0	44990	1924	1
0	45095	1928	1
0	45202	1932	1
0	45306	1936	1
0	45357	1940	1
0	45462	1944	1
0	45567	1948	1
0	45672	1952	1
0	45776	1956	1
0	45827	1960	1
0	45930	1964	1
0	46036	1968	1
0	46141	1972	1
0	46247	1976	1
0	46298	1980	1
0	46401	1984	1
0	46503	1988	1
0	46605	1992	1
0	46709	1996	1
0	46760	2000	1
0	46863	2004	1
0	46965	2008	1
0	47068	2012	1
0	47174	2016	1
0	47225	2020	1
0	47326	2024	1
0	47431	2028	1
0	47535	2032	1
0	47639	2036	1
0	47690	2040	1
0	47793	2044	1
0	47901	2048	1
0	48002	2052	1
0	48103	2056	1
0	48154	2060	1
0	48258	2064	1
0	48365	2068	1
0	48468	2072	1
0	48574	2076	1
0	48625	2080	1
0	48730	2084	1
0	48832	2088	1
0	48935	2092	1
0	49038	2096	1
0	49089	2100	1
0	49192	2104	1
0	49299	2108	1
0	49404	2112	1
0	49508	2116	1
0	49559	2120	1
0	49661	2124	1
0	49766	2128	1
0	49875	2132	1
0	49978	2136	1
0	50029	2140	1
0	50132	2144	1
0	50238	2148	1
0	50342	2152	1
0	50445	2156	1
0	50496	2160	1
0	50597	2164	1
0	50705	2168	1
0	50807	2172	1
0	50911	2176	1
0	50962	2180	1
0	51066	2184	1
0	51167	2188	1
0	51270	2192	1
0	51373	2196	1
0	51424	2200	1
0	51525	2204	1
0	51629	2208	1
0	51736	2212	1
0	51839	2216	1
0	51890	2220	1
0	51996	2224	1
0	52099	2228	1
0	52204	2232	1
0	52310	2236	1
0	52361	2240	1
0	52467	2244	1
0	52569	2248	1
0	52673	2252	1
0	52777	2256	1
0	52828	2260	1
0	52932	2264	1
0	53035	2268	1
0	53138	2272	1
0	53245	2276	1
0	53296	2280	1
0	53397	2284	1
0	53504	2288	1
0	53608	2292	1
0	53713	2296	1
0	53764	2300	1
0	53866	2304	1
0	53972	2308	1
0	54075	2312	1
0	54177	2316	1
0	54228	2320	1
0	54329	2324	1
0	54433	2328	1
0	54535	2332	1
0	54638	2336	1
0	54689	2340	1
0	54792	2344	1
0	54896	2348	1
0	55002	2352	1
0	55106	2356	1
0	55157	2360	1
0	55261	2364	1
0	55362	2368	1
0	55463	2372	1
0	55567	2376	1
0	55618	2380	1
0	55725	2384	1
0	55828	2388	1
0	55932	2392	1
0	56034	2396	1
0	56085	2400	1
0	56188	2404	1
0	56290	2408	1
0	56396	2412	1
0	56500	2416	1
0	56551	2420	1
0	56652	2424	1
0	56754	2428	1
0	56857	2432	1
0	56960	2436	1
0	57011	2440	1
0	57115	2444	1
0	57218	2448	1
0	57320	2452	1
0	57425	2456	1
0	57476	2460	1
0	57580	2464	1
0	57688	2468	1
0	57790	2472	1
0	57893	2476	1
0	57944	2480	1
0	58047	2484	1
0	58150	2488	1
0	58255	2492	1
0	58358	2496	1
0	58409	2500	1
0	58514	2504	1
0	58616	2508	1
0	58722	2512	1
0	58823	2516	1
0	58874	2520	1
0	58976	2524	1
0	59082	2528	1
0	59187	2532	1
0	59290	2536	1
0	59341	2540	1
0	59446	2544	1
0	59551	2548	1
0	59655	2552	1
0	59756	2556	1
0	59807	2560	1
0	59911	2564	1
0	60014	2568	1
0	60119	2572	1
0	60223	2576	1
0	60274	2580	1
0	60378	2584	1
0	60484	2588	1
0	60588	2592	1
0	60692	2596	1
0	60743	2600	1
0	60847	2604	1
0	60952	2608	1
0	61057	2612	1
0	61159	2616	1
0	61210	2620	1
0	61312	2624	1
0	61416	2628	1
0	61522	2632	1
0	61629	2636	1
0	61680	2640	1
0	61782	2644	1
0	61888	2648	1
0	61989	2652	1
0	62090	2656	1
0	62141	2660	1
0	62243	2664	1
0	62345	2668	1
0	62449	2672	1
0	62553	2676	1
0	62604	2680	1
0	62706	2684	1
0	62810	2688	1
0	62913	2692	1
0	63017	2696	1
0	63068	2700	1
0	63171	2704	1
0	63277	2708	1
0	63384	2712	1
0	63485	2716	1
0	63536	2720	1
0	63641	2724	1
0	63746	2728	1
0	63850	2732	1
0	63957	2736	1
0	64008	2740	1
0	64110	2744	1
0	64215	2748	1
0	64318	2752	1
0	64421	2756	1
0	64472	2760	1
0	64576	2764	1
0	64678	2768	1
0	64783	2772	1
0	64888	2776	1
0	64939	2780	1
0	65040	2784	1
0	65145	2788	1
0	65250	2792	1
0	65353	2796	1
0	65404	2800	1
0	65508	2804	1
0	65612	2808	1
0	65715	2812	1
0	65819	2816	1
0	65870	2820	1
0	65972	2824	1
0	66076	2828	1
0	66180	2832	1
0	66283	2836	1
0	66334	2840	1
0	66435	2844	1
0	66539	2848	1
0	66646	2852	1
0	66753	2856	1
0	66804	2860	1
0	66907	2864	1
0	67014	2868	1
0	67117	2872	1
0	67223	2876	1
0	67274	2880	1
0	67379	2884	1
0	67482	2888	1
0	67586	2892	1
0	67689	2896	1
0	67740	2900	1
0	67842	2904	1
0	67946	2908	1
0	68049	2912	1
0	68154	2916	1
0	68205	2920	1
0	68308	2924	1
0	68412	2928	1
0	68516	2932	1
0	68620	2936	1
0	68671	2940	1
0	68772	2944	1
0	68875	2948	1
0	68981	2952	1
0	69086	2956	1
0	69137	2960	1
0	69240	2964	1
0	69344	2968	1
0	69451	2972	1
0	69553	2976	1
0	69604	2980	1
0	69707	2984	1
0	69812	2988	1
0	69919	2992	1
0	70022	2996	1
0	70073	3000	1
0	70173	3004	1
0	70275	3008	1
0	70381	3012	1
0	70485	3016	1
0	70536	3020	1
0	70645	3024	1
0	70747	3028	1
0	70850	3032	1
0	70953	3036	1
0	71004	3040	1
0	71108	3044	1
0	71211	3048	1
0	71315	3052	1
0	71418	3056	1
0	71469	3060	1
0	71574	3064	1
0	71682	3068	1
0	71785	3072	1
0	71889	3076	1
0	71940	3080	1
0	72044	3084	1
0	72153	3088	1
0	72255	3092	1
0	72359	3096	1
0	72410	3100	1
0	72514	3104	1
0	72619	3108	1
0	72724	3112	1
0	72826	3116	1
0	72877	3120	1
0	72978	3124	1
0	73085	3128	1
0	73189	3132	1
0	73292	3136	1
0	73343	3140	1
0	73447	3144	1
0	73550	3148	1
0	73655	3152	1
0	73762	3156	1
0	73813	3160	1
0	73917	3164	1
0	74019	3168	1
0	74122	3172	1
0	74227	3176	1
0	74278	3180	1
0	74381	3184	1
0	74485	3188	1
0	74591	3192	1
0	74695	3196	1
0	74746	3200	1
0	74850	3204	1
0	74955	3208	1
0	75063	3212	1
0	75165	3216	1
0	75216	3220	1
0	75318	3224	1
0	75421	3228	1
0	75526	3232	1
0	75629	3236	1
0	75680	3240	1
0	75786	3244	1
0	75889	3248	1
0	75995	3252	1
0	76098	3256	1
0	76149	3260	1
0	76251	3264	1
0	76356	3268	1
0	76462	3272	1
0	76569	3276	1
0	76620	3280	1
0	76721	3284	1
0	76824	3288	1
0	76928	3292	1
0	77032	3296	1
0	77083	3300	1
0	77190	3304	1
0	77292	3308	1
0	77396	3312	1
0	77502	3316	1
0	77553	3320	1
0	77655	3324	1
0	77760	3328	1
0	77867	3332	1
0	77971	3336	1
0	78022	3340	1
0	78126	3344	1
0	78228	3348	1
0	78334	3352	1
0	78439	3356	1
0	78490	3360	1
0	78592	3364	1
0	78698	3368	1
0	78801	3372	1
0	78906	3376	1
0	78957	3380	1
0	79061	3384	1
0	79168	3388	1
0	79273	3392	1
0	79377	3396	1
0	79428	3400	1
0	79529	3404	1
0	79632	3408	1
0	79738	3412	1
0	79843	3416	1
0	79894	3420	1
0	79996	3424	1
0	80099	3428	1
0	80205	3432	1
0	80310	3436	1
0	80361	3440	1
0	80465	3444	1
0	80568	3448	1
0	80672	3452	1
0	80777	3456	1
0	80828	3460	1
0	80929	3464	1
0	81033	3468	1
0	81138	3472	1
0	81241	3476	1
0	81292	3480	1
0	81394	3484	1
0	81501	3488	1
0	81605	3492	1
0	81707	3496	1
0	81758	3500	1
0	81862	3504	1
0	81967	3508	1
0	82070	3512	1
0	82174	3516	1
0	82225	3520	1
0	82327	3524	1
0	82431	3528	1
0	82535	3532	1
0	82639	3536	1
0	82690	3540	1
0	82791	3544	1
0	82896	3548	1
0	83000	3552	1
0	83103	3556	1
0	83154	3560	1
0	83256	3564	1
0	83360	3568	1
0	83463	3572	1
0	83566	3576	1
0	83617	3580	1
0	83721	3584	1
0	83823	3588	1
0	83926	3592	1
0	84029	3596	1
0	84080	3600	1
1	2	4	1
1	121	8	1
1	235	12	1
1	347	16	1
1	398	20	1
1	504	24	1
1	607	28	1
1	721	32	1
1	832	36	1
1	883	40	1
1	989	44	1
1	1098	48	1
1	1207	52	1
1	1311	56	1
1	1362	60	1
1	1470	64	1
1	1576	68	1
1	1684	72	1
1	1790	76	1
1	1841	80	1
1	1946	84	1
1	2050	88	1
1	2161	92	1
1	2267	96	1
1	2318	100	1
1	2427	104	1
1	2529	108	1
1	2633	112	1
1	2739	116	1
1	2790	120	1
1	2893	124	1
1	2998	128	1
1	3106	132	1
1	3212	136	1
1	3263	140	1
1	3369	144	1
1	3472	148	1
1	3580	152	1
1	3686	156	1
1	3737	160	1
1	3843	164	1
1	3947	168	1
1	4050	172	1
1	4157	176	1
1	4208	180	1
1	4311	184	1
1	4415	188	1
1	4523	192	1
1	4626	196	1
1	4677	200	1
1	4783	204	1
1	4889	208	1
1	4997	212	1
1	5102	216	1
1	5153	220	1
1	5254	224	1
1	5359	228	1
1	5461	232	1
1	5567	236	1
1	5618	240	1
1	5721	244	1
1	5828	248	1
1	5931	252	1
1	6038	256	1
1	6089	260	1
1	6190	264	1
1	6295	268	1
1	6401	272	1
1	6504	276	1
1	6555	280	1
1	6659	284	1
1	6763	288	1
1	6868	292	1
1	6974	296	1
1	7025	300	1
1	7129	304	1
1	7233	308	1
1	7341	312	1
1	7445	316	1
1	7496	320	1
1	7601	324	1
1	7706	328	1
1	7816	332	1
1	7918	336	1
1	7969	340	1
1	8072	344	1
1	8180	348	1
1	8286	352	1
1	8391	356	1
1	8442	360	1
1	8543	364	1
1	8648	368	1
1	8751	372	1
1	8857	376	1
1	8908	380	1
1	9011	384	1
1	9117	388	1
1	9222	392	1
1	9325	396	1
1	9376	400	1
1	9481	404	1
1	9583	408	1
1	9686	412	1
1	9792	416	1
1	9843	420	1
1	9947	424	1
1	10050	428	1
1	10156	432	1
1	10263	436	1
1	10314	440	1
1	10417	444	1
1	10525	448	1
1	10626	452	1
1	10729	456	1
1	10780	460	1
1	10883	464	1
1	10990	468	1
1	11092	472	1
1	11201	476	1
1	11252	480	1
1	11355	484	1
1	11458	488	1
1	11565	492	1
1	11666	496	1
1	11717	500	1
1	11821	504	1
1	11928	508	1
1	12032	512	1
1	12137	516	1
1	12188	520	1
1	12292	524	1
1	12394	528	1
1	12499	532	1
1	12603	536	1
1	12654	540	1
1	12756	544	1
1	12860	548	1
1	12965	552	1
1	13070	556	1
1	13121	560	1
1	13227	564	1
1	13330	568	1
1	13437	572	1
1	13540	576	1
1	13591	580	1
1	13692	584	1
1	13795	588	1
1	13902	592	1
1	14004	596	1
1	14055	600	1
1	14158	604	1
1	14260	608	1
1	14367	612	1
1	14475	616	1
1	14526	620	1
1	14626	624	1
1	14728	628	1
1	14831	632	1
1	14936	636	1
1	14987	640	1
1	15092	644	1
1	15196	648	1
1	15299	652	1
1	15402	656	1
1	15453	660	1
1	15554	664	1
1	15658	668	1
1	15760	672	1
1	15863	676	1
1	15914	680	1
1	16022	684	1
1	16124	688	1
1	16230	692	1
1	16333	696	1
1	16384	700	1
1	16487	704	1
1	16592	708	1
1	16696	712	1
1	16802	716	1
1	16853	720	1
1	16957	724	1
1	17060	728	1
1	17167	732	1
1	17271	736	1
1	17322	740	1
1	17426	744	1
1	17534	748	1
1	17636	752	1
1	17744	756	1
1	17795	760	1
1	17897	764	1
1	18003	768	1
1	18106	772	1
1	18211	776	1
1	18262	780	1
1	18366	784	1
1	18467	788	1
1	18569	792	1
1	18673	796	1
1	18724	800	1
1	18825	804	1
1	18932	808	1
1	19037	812	1
1	19140	816	1
1	19191	820	1
1	19292	824	1
1	19396	828	1
1	19501	832	1
1	19605	836	1
1	19656	840	1
1	19760	844	1
1	19863	848	1
1	19965	852	1
1	20068	856	1
1	20119	860	1
1	20222	864	1
1	20329	868	1
1	20431	872	1
1	20537	876	1
1	20588	880	1
1	20693	884	1
1	20797	888	1
1	20903	892	1
1	21010	896	1
1	21061	900	1
1	21167	904	1
1	21271	908	1
1	21374	912	1
1	21478	916	1
1	21529	920	1
1	21634	924	1
1	21737	928	1
1	21840	932	1
1	21944	936	1
1	21995	940	1
1	22100	944	1
1	22207	948	1
1	22313	952	1
1	22417	956	1
1	22468	960	1
1	22571	964	1
1	22673	968	1
1	22778	972	1
1	22883	976	1
1	22934	980	1
1	23039	984	1
1	23144	988	1
1	23248	992	1
1	23354	996	1
1	23405	1000	1
1	23508	1004	1
1	23613	1008	1
1	23716	1012	1
1	23821	1016	1
1	23872	1020	1
1	23982	1024	1
1	24086	1028	1
1	24192	1032	1
1	24296	1036	1
1	24347	1040	1
1	24451	1044	1
1	24556	1048	1
1	24662	1052	1
1	24764	1056	1
1	24815	1060	1
1	24919	1064	1
1	25024	1068	1
1	25128	1072	1
1	25234	1076	1
1	25285	1080	1
1	25393	1084	1
1	25494	1088	1
1	25595	1092	1
1	25698	1096	1
1	25749	1100	1
1	25851	1104	1
1	25957	1108	1
1	26061	1112	1
1	26166	1116	1
1	26217	1120	1
1	26323	1124	1
1	26424	1128	1
1	26529	1132	1
1	26631	1136	1
1	26682	1140	1
1	26789	1144	1
1	26893	1148	1
1	26997	1152	1
1	27099	1156	1
1	27150	1160	1
1	27253	1164	1
1	27355	1168	1
1	27458	1172	1
1	27562	1176	1
1	27613	1180	1
1	27713	1184	1
1	27817	1188	1
1	27924	1192	1
1	28027	1196	1
1	28078	1200	1
1	28182	1204	1
1	28286	1208	1
1	28390	1212	1
1	28495	1216	1
1	28546	1220	1
1	28647	1224	1
1	28752	1228	1
1	28855	1232	1
1	28958	1236	1
1	29009	1240	1
1	29110	1244	1
1	29214	1248	1
1	29319	1252	1
1	29424	1256	1
1	29475	1260	1
1	29579	1264	1
1	29686	1268	1
1	29795	1272	1
1	29898	1276	1
1	29949	1280	1
1	30051	1284	1
1	30156	1288	1
1	30257	1292	1
1	30360	1296	1
1	30411	1300	1
1	30515	1304	1
1	30619	1308	1
1	30724	1312	1
1	30828	1316	1
1	30879	1320	1
1	30982	1324	1
1	31085	1328	1
1	31193	1332	1
1	31295	1336	1
1	31346	1340	1
1	31449	1344	1
1	31558	1348	1
1	31663	1352	1
1	31768	1356	1
1	31819	1360	1
1	31924	1364	1
1	32029	1368	1
1	32134	1372	1
1	32237	1376	1
1	32288	1380	1
1	32392	1384	1
1	32494	1388	1
1	32596	1392	1
1	32700	1396	1
1	32751	1400	1
1	32854	1404	1
1	32956	1408	1
1	33061	1412	1
1	33166	1416	1
1	33217	1420	1
1	33319	1424	1
1	33424	1428	1
1	33530	1432	1
1	33634	1436	1
1	33685	1440	1
1	33786	1444	1
1	33888	1448	1
1	33996	1452	1
1	34101	1456	1
1	34152	1460	1
1	34255	1464	1
1	34356	1468	1
1	34457	1472	1
1	34562	1476	1
1	34613	1480	1
1	34714	1484	1
1	34816	1488	1
1	34919	1492	1
1	35022	1496	1
1	35073	1500	1
1	35179	1504	1
1	35280	1508	1
1	35383	1512	1
1	35485	1516	1
1	35536	1520	1
1	35639	1524	1
1	35744	1528	1
1	35847	1532	1
1	35951	1536	1
1	36002	1540	1
1	36107	1544	1
1	36212	1548	1
1	36318	1552	1
1	36424	1556	1
1	36475	1560	1
1	36576	1564	1
1	36682	1568	1
1	36784	1572	1
1	36887	1576	1
1	36938	1580	1
1	37042	1584	1
1	37146	1588	1
1	37253	1592	1
1	37355	1596	1
1	37406	1600	1
1	37508	1604	1
1	37613	1608	1
1	37720	1612	1
1	37826	1616	1
1	37877	1620	1
1	37977	1624	1
1	38079	1628	1
1	38184	1632	1
1	38291	1636	1
1	38342	1640	1
1	38443	1644	1
1	38548	1648	1
1	38650	1652	1
1	38752	1656	1
1	38803	1660	1
1	38906	1664	1
1	39012	1668	1
1	39116	1672	1
1	39223	1676	1
1	39274	1680	1
1	39375	1684	1
1	39481	1688	1
1	39585	1692	1
1	39688	1696	1
1	39739	1700	1
1	39843	1704	1
1	39947	1708	1
1	40055	1712	1
1	40159	1716	1
1	40210	1720	1
1	40314	1724	1
1	40418	1728	1
1	40520	1732	1
1	40623	1736	1
1	40674	1740	1
1	40781	1744	1
1	40884	1748	1
1	40992	1752	1
1	41096	1756	1
1	41147	1760	1
1	41249	1764	1
1	41353	1768	1
1	41457	1772	1
1	41561	1776	1
1	41612	1780	1
1	41715	1784	1
1	41818	1788	1
1	41923	1792	1
1	42027	1796	1
1	42078	1800	1
1	42182	1804	1
1	42286	1808	1
1	42391	1812	1
1	42495	1816	1
1	42546	1820	1
1	42649	1824	1
1	42756	1828	1
1	42860	1832	1
1	42963	1836	1
1	43014	1840	1
1	43118	1844	1
1	43223	1848	1
1	43330	1852	1
1	43433	1856	1
1	43484	1860	1
1	43585	1864	1
1	43689	1868	1
1	43795	1872	1
1	43899	1876	1
1	43950	1880	1
1	44051	1884	1
1	44155	1888	1
1	44260	1892	1
1	44366	1896	1
1	44417	1900	1
1	44524	1904	1
1	44627	1908	1
1	44732	1912	1
1	44838	1916	1
1	44889	1920	1
1	44991	1924	1
1	45096	1928	1
1	45203	1932	1
1	45307	1936	1
1	45358	1940	1
1	45463	1944	1
1	45568	1948	1
1	45673	1952	1
1	45777	1956	1
1	45828	1960	1
1	45931	1964	1
1	46037	1968	1
1	46142	1972	1
1	46248	1976	1
1	46299	1980	1
1	46402	1984	1
1	46504	1988	1
1	46606	1992	1
1	46710	1996	1
1	46761	2000	1
1	46864	2004	1
1	46966	2008	1
1	47069	2012	1
1	47175	2016	1
1	47226	2020	1
1	47327	2024	1
1	47432	2028	1
1	47536	2032	1
1	47640	2036	1
1	47691	2040	1
1	47794	2044	1
1	47902	2048	1
1	48003	2052	1
1	48104	2056	1
1	48155	2060	1
1	48259	2064	1
1	48366	2068	1
1	48469	2072	1
1	48575	2076	1
1	48626	2080	1
1	48731	2084	1
1	48833	2088	1
1	48936	2092	1
1	49039	2096	1
1	49090	2100	1
1	49193	2104	1
1	49300	2108	1
1	49405	2112	1
1	49509	2116	1
1	49560	2120	1
1	49662	2124	1
1	49767	2128	1
1	49876	2132	1
1	49979	2136	1
1	50030	2140	1
1	50133	2144	1
1	50239	2148	1
1	50343	2152	1
1	50446	2156	1
1	50497	2160	1
1	50598	2164	1
1	50706	2168	1
1	50808	2172	1
1	50912	2176	1
1	50963	2180	1
1	51067	2184	1
1	51168	2188	1
1	51271	2192	1
1	51374	2196	1
1	51425	2200	1
1	51526	2204	1
1	51630	2208	1
1	51737	2212	1
1	51840	2216	1
1	51891	2220	1
1	51997	2224	1
1	52100	2228	1
1	52205	2232	1
1	52311	2236	1
1	52362	2240	1
1	52468	2244	1
1	52570	2248	1
1	52674	2252	1
1	52778	2256	1
1	52829	2260	1
1	52933	2264	1
1	53036	2268	1
1	53139	2272	1
1	53246	2276	1
1	53297	2280	1
1	53398	2284	1
1	53505	2288	1
1	53609	2292	1
1	53714	2296	1
1	53765	2300	1
1	53867	2304	1
1	53973	2308	1
1	54076	2312	1
1	54178	2316	1
1	54229	2320	1
1	54330	2324	1
1	54434	2328	1
1	54536	2332	1
1	54639	2336	1
1	54690	2340	1
1	54793	2344	1
1	54897	2348	1
1	55003	2352	1
1	55107	2356	1
1	55158	2360	1
1	55262	2364	1
1	55363	2368	1
1	55464	2372	1
1	55568	2376	1
1	55619	2380	1
1	55726	2384	1
1	55829	2388	1
1	55933	2392	1
1	56035	2396	1
1	56086	2400	1
1	56189	2404	1
1	56291	2408	1
1	56397	2412	1
1	56501	2416	1
1	56552	2420	1
1	56653	2424	1
1	56755	2428	1
1	56858	2432	1
1	56961	2436	1
1	57012	2440	1
1	57116	2444	1
1	57219	2448	1
1	57321	2452	1
1	57426	2456	1
1	57477	2460	1
1	57581	2464	1
1	57689	2468	1
1	57791	2472	1
1	57894	2476	1
1	57945	2480	1
1	58048	2484	1
1	58151	2488	1
1	58256	2492	1
1	58359	2496	1
1	58410	2500	1
1	58515	2504	1
1	58617	2508	1
1	58723	2512	1
1	58824	2516	1
1	58875	2520	1
1	58977	2524	1
1	59083	2528	1
1	59188	2532	1
1	59291	2536	1
1	59342	2540	1
1	59447	2544	1
1	59552	2548	1
1	59656	2552	1
1	59757	2556	1
1	59808	2560	1
1	59912	2564	1
1	60015	2568	1
1	60120	2572	1
1	60224	2576	1
1	60275	2580	1
1	60379	2584	1
1	60485	2588	1
1	60589	2592	1
1	60693	2596	1
1	60744	2600	1
1	60848	2604	1
1	60953	2608	1
1	61058	2612	1
1	61160	2616	1
1	61211	2620	1
1	61313	2624	1
1	61417	2628	1
1	61523	2632	1
1	61630	2636	1
1	61681	2640	1
1	61783	2644	1
1	61889	2648	1
1	61990	2652	1
1	62091	2656	1
1	62142	2660	1
1	62244	2664	1
1	62346	2668	1
1	62450	2672	1
1	62554	2676	1
1	62605	2680	1
1	62707	2684	1
1	62811	2688	1
1	62914	2692	1
1	63018	2696	1
1	63069	2700	1
1	63172	2704	1
1	63278	2708	1
1	63385	2712	1
1	63486	2716	1
1	63537	2720	1
1	63642	2724	1
1	63747	2728	1
1	63851	2732	1
1	63958	2736	1
1	64009	2740	1
1	64111	2744	1
1	64216	2748	1
1	64319	2752	1
1	64422	2756	1
1	64473	2760	1
1	64577	2764	1
1	64679	2768	1
1	64784	2772	1
1	64889	2776	1
1	64940	2780	1
1	65041	2784	1
1	65146	2788	1
1	65251	2792	1
1	65354	2796	1
1	65405	2800	1
1	65509	2804	1
1	65613	2808	1
1	65716	2812	1
1	65820	2816	1
1	65871	2820	1
1	65973	2824	1
1	66077	2828	1
1	66181	2832	1
1	66284	2836	1
1	66335	2840	1
1	66436	2844	1
1	66540	2848	1
1	66647	2852	1
1	66754	2856	1
1	66805	2860	1
1	66908	2864	1
1	67015	2868	1
1	67118	2872	1
1	67224	2876	1
1	67275	2880	1
1	67380	2884	1
1	67483	2888	1
1	67587	2892	1
1	67690	2896	1
1	67741	2900	1
1	67843	2904	1
1	67947	2908	1
1	68050	2912	1
1	68155	2916	1
1	68206	2920	1
1	68309	2924	1
1	68413	2928	1
1	68517	2932	1
1	68621	2936	1
1	68672	2940	1
1	68773	2944	1
1	68876	2948	1
1	68982	2952	1
1	69087	2956	1
1	69138	2960	1
1	69241	2964	1
1	69345	2968	1
1	69452	2972	1
1	69554	2976	1
1	69605	2980	1
1	69708	2984	1
1	69813	2988	1
1	69920	2992	1
1	70023	2996	1
1	70074	3000	1
1	70174	3004	1
1	70276	3008	1
1	70382	3012	1
1	70486	3016	1
1	70537	3020	1
1	70646	3024	1
1	70748	3028	1
1	70851	3032	1
1	70954	3036	1
1	71005	3040	1
1	71109	3044	1
1	71212	3048	1
1	71316	3052	1
1	71419	3056	1
1	71470	3060	1
1	71575	3064	1
1	71683	3068	1
1	71786	3072	1
1	71890	3076	1
1	71941	3080	1
1	72045	3084	1
1	72154	3088	1
1	72256	3092	1
1	72360	3096	1
1	72411	3100	1
1	72515	3104	1
1	72620	3108	1
1	72725	3112	1
1	72827	3116	1
1	72878	3120	1
1	72979	3124	1
1	73086	3128	1
1	73190	3132	1
1	73293	3136	1
1	73344	3140	1
1	73448	3144	1
1	73551	3148	1
1	73656	3152	1
1	73763	3156	1
1	73814	3160	1
1	73918	3164	1
1	74020	3168	1
1	74123	3172	1
1	74228	3176	1
1	74279	3180	1
1	74382	3184	1
1	74486	3188	1
1	74592	3192	1
1	74696	3196	1
1	74747	3200	1
1	74851	3204	1
1	74956	3208	1
1	75064	3212	1
1	75166	3216	1
1	75217	3220	1
1	75319	3224	1
1	75422	3228	1
1	75527	3232	1
1	75630	3236	1
1	75681	3240	1
1	75787	3244	1
1	75890	3248	1
1	75996	3252	1
1	76099	3256	1
1	76150	3260	1
1	76252	3264	1
1	76357	3268	1
1	76463	3272	1
1	76570	3276	1
1	76621	3280	1
1	76722	3284	1
1	76825	3288	1
1	76929	3292	1
1	77033	3296	1
1	77084	3300	1
1	77191	3304	1
1	77293	3308	1
1	77397	3312	1
1	77503	3316	1
1	77554	3320	1
1	77656	3324	1
1	77761	3328	1
1	77868	3332	1
1	77972	3336	1
1	78023	3340	1
1	78127	3344	1
1	78229	3348	1
1	78335	3352	1
1	78440	3356	1
1	78491	3360	1
1	78593	3364	1
1	78699	3368	1
1	78802	3372	1
1	78907	3376	1
1	78958	3380	1
1	79062	3384	1
1	79169	3388	1
1	79274	3392	1
1	79378	3396	1
1	79429	3400	1
1	79530	3404	1
1	79633	3408	1
1	79739	3412	1
1	79844	3416	1
1	79895	3420	1
1	79997	3424	1
1	80100	3428	1
1	80206	3432	1
1	80311	3436	1
1	80362	3440	1
1	80466	3444	1
1	80569	3448	1
1	80673	3452	1
1	80778	3456	1
1	80829	3460	1
1	80930	3464	1
1	81034	3468	1
1	81139	3472	1
1	81242	3476	1
1	81293	3480	1
1	81395	3484	1
1	81502	3488	1
1	81606	3492	1
1	81708	3496	1
1	81759	3500	1
1	81863	3504	1
1	81968	3508	1
1	82071	3512	1
1	82175	3516	1
1	82226	3520	1
1	82328	3524	1
1	82432	3528	1
1	82536	3532	1
1	82640	3536	1
1	82691	3540	1
1	82792	3544	1
1	82897	3548	1
1	83001	3552	1
1	83104	3556	1
1	83155	3560	1
1	83257	3564	1
1	83361	3568	1
1	83464	3572	1
1	83567	3576	1
1	83618	3580	1
1	83722	3584	1
1	83824	3588	1
1	83927	3592	1
1	84030	3596	1
1	84081	3600	1
2	3	4	1
2	122	8	1
2	236	12	1
2	348	16	1
2	399	20	1
2	505	24	1
2	608	28	1
2	722	32	1
2	833	36	1
2	884	40	1
2	990	44	1
2	1099	48	1
2	1208	52	1
2	1312	56	1
2	1363	60	1
2	1471	64	1
2	1577	68	1
2	1685	72	1
2	1791	76	1
2	1842	80	1
2	1947	84	1
2	2051	88	1
2	2162	92	1
2	2268	96	1
2	2319	100	1
2	2428	104	1
2	2530	108	1
2	2634	112	1
2	2740	116	1
2	2791	120	1
2	2894	124	1
2	2999	128	1
2	3107	132	1
2	3213	136	1
2	3264	140	1
2	3370	144	1
2	3473	148	1
2	3581	152	1
2	3687	156	1
2	3738	160	1
2	3844	164	1
2	3948	168	1
2	4051	172	1
2	4158	176	1
2	4209	180	1
2	4312	184	1
2	4416	188	1
2	4524	192	1
2	4627	196	1
2	4678	200	1
2	4784	204	1
2	4890	208	1
2	4998	212	1
2	5103	216	1
2	5154	220	1
2	5255	224	1
2	5360	228	1
2	5462	232	1
2	5568	236	1
2	5619	240	1
2	5722	244	1
2	5829	248	1
2	5932	252	1
2	6039	256	1
2	6090	260	1
2	6191	264	1
2	6296	268	1
2	6402	272	1
2	6505	276	1
2	6556	280	1
2	6660	284	1
2	6764	288	1
2	6869	292	1
2	6975	296	1
2	7026	300	1
2	7130	304	1
2	7234	308	1
2	7342	312	1
2	7446	316	1
2	7497	320	1
2	7602	324	1
2	7707	328	1
2	7817	332	1
2	7919	336	1
2	7970	340	1
2	8073	344	1
2	8181	348	1
2	8287	352	1
2	8392	356	1
2	8443	360	1
2	8544	364	1
2	8649	368	1
2	8752	372	1
2	8858	376	1
2	8909	380	1
2	9012	384	1
2	9118	388	1
2	9223	392	1
2	9326	396	1
2	9377	400	1
2	9482	404	1
2	9584	408	1
2	9687	412	1
2	9793	416	1
2	9844	420	1
2	9948	424	1
2	10051	428	1
2	10157	432	1
2	10264	436	1
2	10315	440	1
2	10418	444	1
2	10526	448	1
2	10627	452	1
2	10730	456	1
2	10781	460	1
2	10884	464	1
2	10991	468	1
2	11093	472	1
2	11202	476	1
2	11253	480	1
2	11356	484	1
2	11459	488	1
2	11566	492	1
2	11667	496	1
2	11718	500	1
2	11822	504	1
2	11929	508	1
2	12033	512	1
2	12138	516	1
2	12189	520	1
2	12293	524	1
2	12395	528	1
2	12500	532	1
2	12604	536	1
2	12655	540	1
2	12757	544	1
2	12861	548	1
2	12966	552	1
2	13071	556	1
2	13122	560	1
2	13228	564	1
2	13331	568	1
2	13438	572	1
2	13541	576	1
2	13592	580	1
2	13693	584	1
2	13796	588	1
2	13903	592	1
2	14005	596	1
2	14056	600	1
2	14159	604	1
2	14261	608	1
2	14368	612	1
2	14476	616	1
2	14527	620	1
2	14627	624	1
2	14729	628	1
2	14832	632	1
2	14937	636	1
2	14988	640	1
2	15093	644	1
2	15197	648	1
2	15300	652	1
2	15403	656	1
2	15454	660	1
2	15555	664	1
2	15659	668	1
2	15761	672	1
2	15864	676	1
2	15915	680	1
2	16023	684	1
2	16125	688	1
2	16231	692	1
2	16334	696	1
2	16385	700	1
2	16488	704	1
2	16593	708	1
2	16697	712	1
2	16803	716	1
2	16854	720	1
2	16958	724	1
2	17061	728	1
2	17168	732	1
2	17272	736	1
2	17323	740	1
2	17427	744	1
2	17535	748	1
2	17637	752	1
2	17745	756	1
2	17796	760	1
2	17898	764	1
2	18004	768	1
2	18107	772	1
2	18212	776	1
2	18263	780	1
2	18367	784	1
2	18468	788	1
2	18570	792	1
2	18674	796	1
2	18725	800	1
2	18826	804	1
2	18933	808	1
2	19038	812	1
2	19141	816	1
2	19192	820	1
2	19293	824	1
2	19397	828	1
2	19502	832	1
2	19606	836	1
2	19657	840	1
2	19761	844	1
2	19864	848	1
2	19966	852	1
2	20069	856	1
2	20120	860	1
2	20223	864	1
2	20330	868	1
2	20432	872	1
2	20538	876	1
2	20589	880	1
2	20694	884	1
2	20798	888	1
2	20904	892	1
2	21011	896	1
2	21062	900	1
2	21168	904	1
2	21272	908	1
2	21375	912	1
2	21479	916	1
2	21530	920	1
2	21635	924	1
2	21738	928	1
2	21841	932	1
2	21945	936	1
2	21996	940	1
2	22101	944	1
2	22208	948	1
2	22314	952	1
2	22418	956	1
2	22469	960	1
2	22572	964	1
2	22674	968	1
2	22779	972	1
2	22884	976	1
2	22935	980	1
2	23040	984	1
2	23145	988	1
2	23249	992	1
2	23355	996	1
2	23406	1000	1
2	23509	1004	1
2	23614	1008	1
2	23717	1012	1
2	23822	1016	1
2	23873	1020	1
2	23983	1024	1
2	24087	1028	1
2	24193	1032	1
2	24297	1036	1
2	24348	1040	1
2	24452	1044	1
2	24557	1048	1
2	24663	1052	1
2	24765	1056	1
2	24816	1060	1
2	24920	1064	1
2	25025	1068	1
2	25129	1072	1
2	25235	1076	1
2	25286	1080	1
2	25394	1084	1
2	25495	1088	1
2	25596	1092	1
2	25699	1096	1
2	25750	1100	1
2	25852	1104	1
2	25958	1108	1
2	26062	1112	1
2	26167	1116	1
2	26218	1120	1
2	26324	1124	1
2	26425	1128	1
2	26530	1132	1
2	26632	1136	1
2	26683	1140	1
2	26790	1144	1
2	26894	1148	1
2	26998	1152	1
2	27100	1156	1
2	27151	1160	1
2	27254	1164	1
2	27356	1168	1
2	27459	1172	1
2	27563	1176	1
2	27614	1180	1
2	27714	1184	1
2	27818	1188	1
2	27925	1192	1
2	28028	1196	1
2	28079	1200	1
2	28183	1204	1
2	28287	1208	1
2	28391	1212	1
2	28496	1216	1
2	28547	1220	1
2	28648	1224	1
2	28753	1228	1
2	28856	1232	1
2	28959	1236	1
2	29010	1240	1
2	29111	1244	1
2	29215	1248	1
2	29320	1252	1
2	29425	1256	1
2	29476	1260	1
2	29580	1264	1
2	29687	1268	1
2	29796	1272	1
2	29899	1276	1
2	29950	1280	1
2	30052	1284	1
2	30157	1288	1
2	30258	1292	1
2	30361	1296	1
2	30412	1300	1
2	30516	1304	1
2	30620	1308	1
2	30725	1312	1
2	30829	1316	1
2	30880	1320	1
2	30983	1324	1
2	31086	1328	1
2	31194	1332	1
2	31296	1336	1
2	31347	1340	1
2	31450	1344	1
2	31559	1348	1
2	31664	1352	1
2	31769	1356	1
2	31820	1360	1
2	31925	1364	1
2	32030	1368	1
2	32135	1372	1
2	32238	1376	1
2	32289	1380	1
2	32393	1384	1
2	32495	1388	1
2	32597	1392	1
2	32701	1396	1
2	32752	1400	1
2	32855	1404	1
2	32957	1408	1
2	33062	1412	1
2	33167	1416	1
2	33218	1420	1
2	33320	1424	1
2	33425	1428	1
2	33531	1432	1
2	33635	1436	1
2	33686	1440	1
2	33787	1444	1
2	33889	1448	1
2	33997	1452	1
2	34102	1456	1
2	34153	1460	1
2	34256	1464	1
2	34357	1468	1
2	34458	1472	1
2	34563	1476	1
2	34614	1480	1
2	34715	1484	1
2	34817	1488	1
2	34920	1492	1
2	35023	1496	1
2	35074	1500	1
2	35180	1504	1
2	35281	1508	1
2	35384	1512	1
2	35486	1516	1
2	35537	1520	1
2	35640	1524	1
2	35745	1528	1
2	35848	1532	1
2	35952	1536	1
2	36003	1540	1
2	36108	1544	1
2	36213	1548	1
2	36319	1552	1
2	36425	1556	1
2	36476	1560	1
2	36577	1564	1
2	36683	1568	1
2	36785	1572	1
2	36888	1576	1
2	36939	1580	1
2	37043	1584	1
2	37147	1588	1
2	37254	1592	1
2	37356	1596	1
2	37407	1600	1
2	37509	1604	1
2	37614	1608	1
2	37721	1612	1
2	37827	1616	1
2	37878	1620	1
2	37978	1624	1
2	38080	1628	1
2	38185	1632	1
2	38292	1636	1
2	38343	1640	1
2	38444	1644	1
2	38549	1648	1
2	38651	1652	1
2	38753	1656	1
2	38804	1660	1
2	38907	1664	1
2	39013	1668	1
2	39117	1672	1
2	39224	1676	1
2	39275	1680	1
2	39376	1684	1
2	39482	1688	1
2	39586	1692	1
2	39689	1696	1
2	39740	1700	1
2	39844	1704	1
2	39948	1708	1
2	40056	1712	1
2	40160	1716	1
2	40211	1720	1
2	40315	1724	1
2	40419	1728	1
2	40521	1732	1
2	40624	1736	1
2	40675	1740	1
2	40782	1744	1
2	40885	1748	1
2	40993	1752	1
2	41097	1756	1
2	41148	1760	1
2	41250	1764	1
2	41354	1768	1
2	41458	1772	1
2	41562	1776	1
2	41613	1780	1
2	41716	1784	1
2	41819	1788	1
2	41924	1792	1
2	42028	1796	1
2	42079	1800	1
2	42183	1804	1
2	42287	1808	1
2	42392	1812	1
2	42496	1816	1
2	42547	1820	1
2	42650	1824	1
2	42757	1828	1
2	42861	1832	1
2	42964	1836	1
2	43015	1840	1
2	43119	1844	1
2	43224	1848	1
2	43331	1852	1
2	43434	1856	1
2	43485	1860	1
2	43586	1864	1
2	43690	1868	1
2	43796	1872	1
2	43900	1876	1
2	43951	1880	1
2	44052	1884	1
2	44156	1888	1
2	44261	1892	1
2	44367	1896	1
2	44418	1900	1
2	44525	1904	1
2	44628	1908	1
2	44733	1912	1
2	44839	1916	1
2	44890	1920	1
2	44992	1924	1
2	45097	1928	1
2	45204	1932	1
2	45308	1936	1
2	45359	1940	1
2	45464	1944	1
2	45569	1948	1
2	45674	1952	1
2	45778	1956	1
2	45829	1960	1
2	45932	1964	1
2	46038	1968	1
2	46143	1972	1
2	46249	1976	1
2	46300	1980	1
2	46403	1984	1
2	46505	1988	1
2	46607	1992	1
2	46711	1996	1
2	46762	2000	1
2	46865	2004	1
2	46967	2008	1
2	47070	2012	1
2	47176	2016	1
2	47227	2020	1
2	47328	2024	1
2	47433	2028	1
2	47537	2032	1
2	47641	2036	1
2	47692	2040	1
2	47795	2044	1
2	47903	2048	1
2	48004	2052	1
2	48105	2056	1
2	48156	2060	1
2	48260	2064	1
2	48367	2068	1
2	48470	2072	1
2	48576	2076	1
2	48627	2080	1
2	48732	2084	1
2	48834	2088	1
2	48937	2092	1
2	49040	2096	1
2	49091	2100	1
2	49194	2104	1
2	49301	2108	1
2	49406	2112	1
2	49510	2116	1
2	49561	2120	1
2	49663	2124	1
2	49768	2128	1
2	49877	2132	1
2	49980	2136	1
2	50031	2140	1
2	50134	2144	1
2	50240	2148	1
2	50344	2152	1
2	50447	2156	1
2	50498	2160	1
2	50599	2164	1
2	50707	2168	1
2	50809	2172	1
2	50913	2176	1
2	50964	2180	1
2	51068	2184	1
2	51169	2188	1
2	51272	2192	1
2	51375	2196	1
2	51426	2200	1
2	51527	2204	1
2	51631	2208	1
2	51738	2212	1
2	51841	2216	1
2	51892	2220	1
2	51998	2224	1
2	52101	2228	1
2	52206	2232	1
2	52312	2236	1
2	52363	2240	1
2	52469	2244	1
2	52571	2248	1
2	52675	2252	1
2	52779	2256	1
2	52830	2260	1
2	52934	2264	1
2	53037	2268	1
2	53140	2272	1
2	53247	2276	1
2	53298	2280	1
2	53399	2284	1
2	53506	2288	1
2	53610	2292	1
2	53715	2296	1
2	53766	2300	1
2	53868	2304	1
2	53974	2308	1
2	54077	2312	1
2	54179	2316	1
2	54230	2320	1
2	54331	2324	1
2	54435	2328	1
2	54537	2332	1
2	54640	2336	1
2	54691	2340	1
2	54794	2344	1
2	54898	2348	1
2	55004	2352	1
2	55108	2356	1
2	55159	2360	1
2	55263	2364	1
2	55364	2368	1
2	55465	2372	1
2	55569	2376	1
2	55620	2380	1
2	55727	2384	1
2	55830	2388	1
2	55934	2392	1
2	56036	2396	1
2	56087	2400	1
2	56190	2404	1
2	56292	2408	1
2	56398	2412	1
2	56502	2416	1
2	56553	2420	1
2	56654	2424	1
2	56756	2428	1
2	56859	2432	1
2	56962	2436	1
2	57013	2440	1
2	57117	2444	1
2	57220	2448	1
2	57322	2452	1
2	57427	2456	1
2	57478	2460	1
2	57582	2464	1
2	57690	2468	1
2	57792	2472	1
2	57895	2476	1
2	57946	2480	1
2	58049	2484	1
2	58152	2488	1
2	58257	2492	1
2	58360	2496	1
2	58411	2500	1
2	58516	2504	1
2	58618	2508	1
2	58724	2512	1
2	58825	2516	1
2	58876	2520	1
2	58978	2524	1
2	59084	2528	1
2	59189	2532	1
2	59292	2536	1
2	59343	2540	1
2	59448	2544	1
2	59553	2548	1
2	59657	2552	1
2	59758	2556	1
2	59809	2560	1
2	59913	2564	1
2	60016	2568	1
2	60121	2572	1
2	60225	2576	1
2	60276	2580	1
2	60380	2584	1
2	60486	2588	1
2	60590	2592	1
2	60694	2596	1
2	60745	2600	1
2	60849	2604	1
2	60954	2608	1
2	61059	2612	1
2	61161	2616	1
2	61212	2620	1
2	61314	2624	1
2	61418	2628	1
2	61524	2632	1
2	61631	2636	1
2	61682	2640	1
2	61784	2644	1
2	61890	2648	1
2	61991	2652	1
2	62092	2656	1
2	62143	2660	1
2	62245	2664	1
2	62347	2668	1
2	62451	2672	1
2	62555	2676	1
2	62606	2680	1
2	62708	2684	1
2	62812	2688	1
2	62915	2692	1
2	63019	2696	1
2	63070	2700	1
2	63173	2704	1
2	63279	2708	1
2	63386	2712	1
2	63487	2716	1
2	63538	2720	1
2	63643	2724	1
2	63748	2728	1
2	63852	2732	1
2	63959	2736	1
2	64010	2740	1
2	64112	2744	1
2	64217	2748	1
2	64320	2752	1
2	64423	2756	1
2	64474	2760	1
2	64578	2764	1
2	64680	2768	1
2	64785	2772	1
2	64890	2776	1
2	64941	2780	1
2	65042	2784	1
2	65147	2788	1
2	65252	2792	1
2	65355	2796	1
2	65406	2800	1
2	65510	2804	1
2	65614	2808	1
2	65717	2812	1
2	65821	2816	1
2	65872	2820	1
2	65974	2824	1
2	66078	2828	1
2	66182	2832	1
2	66285	2836	1
2	66336	2840	1
2	66437	2844	1
2	66541	2848	1
2	66648	2852	1
2	66755	2856	1
2	66806	2860	1
2	66909	2864	1
2	67016	2868	1
2	67119	2872	1
2	67225	2876	1
2	67276	2880	1
2	67381	2884	1
2	67484	2888	1
2	67588	2892	1
2	67691	2896	1
2	67742	2900	1
2	67844	2904	1
2	67948	2908	1
2	68051	2912	1
2	68156	2916	1
2	68207	2920	1
2	68310	2924	1
2	68414	2928	1
2	68518	2932	1
2	68622	2936	1
2	68673	2940	1
2	68774	2944	1
2	68877	2948	1
2	68983	2952	1
2	69088	2956	1
2	69139	2960	1
2	69242	2964	1
2	69346	2968	1
2	69453	2972	1
2	69555	2976	1
2	69606	2980	1
2	69709	2984	1
2	69814	2988	1
2	69921	2992	1
2	70024	2996	1
2	70075	3000	1
2	70175	3004	1
2	70277	3008	1
2	70383	3012	1
2	70487	3016	1
2	70538	3020	1
2	70647	3024	1
2	70749	3028	1
2	70852	3032	1
2	70955	3036	1
2	71006	3040	1
2	71110	3044	1
2	71213	3048	1
2	71317	3052	1
2	71420	3056	1
2	71471	3060	1
2	71576	3064	1
2	71684	3068	1
2	71787	3072	1
2	71891	3076	1
2	71942	3080	1
2	72046	3084	1
2	72155	3088	1
2	72257	3092	1
2	72361	3096	1
2	72412	3100	1
2	72516	3104	1
2	72621	3108	1
2	72726	3112	1
2	72828	3116	1
2	72879	3120	1
2	72980	3124	1
2	73087	3128	1
2	73191	3132	1
2	73294	3136	1
2	73345	3140	1
2	73449	3144	1
2	73552	3148	1
2	73657	3152	1
2	73764	3156	1
2	73815	3160	1
2	73919	3164	1
2	74021	3168	1
2	74124	3172	1
2	74229	3176	1
2	74280	3180	1
2	74383	3184	1
2	74487	3188	1
2	74593	3192	1
2	74697	3196	1
2	74748	3200	1
2	74852	3204	1
2	74957	3208	1
2	75065	3212	1
2	75167	3216	1
2	75218	3220	1
2	75320	3224	1
2	75423	3228	1
2	75528	3232	1
2	75631	3236	1
2	75682	3240	1
2	75788	3244	1
2	75891	3248	1
2	75997	3252	1
2	76100	3256	1
2	76151	3260	1
2	76253	3264	1
2	76358	3268	1
2	76464	3272	1
2	76571	3276	1
2	76622	3280	1
2	76723	3284	1
2	76826	3288	1
2	76930	3292	1
2	77034	3296	1
2	77085	3300	1
2	77192	3304	1
2	77294	3308	1
2	77398	3312	1
2	77504	3316	1
2	77555	3320	1
2	77657	3324	1
2	77762	3328	1
2	77869	3332	1
2	77973	3336	1
2	78024	3340	1
2	78128	3344	1
2	78230	3348	1
2	78336	3352	1
2	78441	3356	1
2	78492	3360	1
2	78594	3364	1
2	78700	3368	1
2	78803	3372	1
2	78908	3376	1
2	78959	3380	1
2	79063	3384	1
2	79170	3388	1
2	79275	3392	1
2	79379	3396	1
2	79430	3400	1
2	79531	3404	1
2	79634	3408	1
2	79740	3412	1
2	79845	3416	1
2	79896	3420	1
2	79998	3424	1
2	80101	3428	1
2	80207	3432	1
2	80312	3436	1
2	80363	3440	1
2	80467	3444	1
2	80570	3448	1
2	80674	3452	1
2	80779	3456	1
2	80830	3460	1
2	80931	3464	1
2	81035	3468	1
2	81140	3472	1
2	81243	3476	1
2	81294	3480	1
2	81396	3484	1
2	81503	3488	1
2	81607	3492	1
2	81709	3496	1
2	81760	3500	1
2	81864	3504	1
2	81969	3508	1
2	82072	3512	1
2	82176	3516	1
2	82227	3520	1
2	82329	3524	1
2	82433	3528	1
2	82537	3532	1
2	82641	3536	1
2	82692	3540	1
2	82793	3544	1
2	82898	3548	1
2	83002	3552	1
2	83105	3556	1
2	83156	3560	1
2	83258	3564	1
2	83362	3568	1
2	83465	3572	1
2	83568	3576	1
2	83619	3580	1
2	83723	3584	1
2	83825	3588	1
2	83928	3592	1
2	84031	3596	1
2	84082	3600	1
3	4	4	1
3	123	8	1
3	237	12	1
3	349	16	1
3	400	20	1
3	506	24	1
3	609	28	1
3	723	32	1
3	834	36	1
3	885	40	1
3	991	44	1
3	1100	48	1
3	1209	52	1
3	1313	56	1
3	1364	60	1
3	1472	64	1
3	1578	68	1
3	1686	72	1
3	1792	76	1
3	1843	80	1
3	1948	84	1
3	2052	88	1
3	2163	92	1
3	2269	96	1
3	2320	100	1
3	2429	104	1
3	2531	108	1
3	2635	112	1
3	2741	116	1
3	2792	120	1
3	2895	124	1
3	3000	128	1
3	3108	132	1
3	3214	136	1
3	3265	140	1
3	3371	144	1
3	3474	148	1
3	3582	152	1
3	3688	156	1
3	3739	160	1
3	3845	164	1
3	3949	168	1
3	4052	172	1
3	4159	176	1
3	4210	180	1
3	4313	184	1
3	4417	188	1
3	4525	192	1
3	4628	196	1
3	4679	200	1
3	4785	204	1
3	4891	208	1
3	4999	212	1
3	5104	216	1
3	5155	220	1
3	5256	224	1
3	5361	228	1
3	5463	232	1
3	5569	236	1
3	5620	240	1
3	5723	244	1
3	5830	248	1
3	5933	252	1
3	6040	256	1
3	6091	260	1
3	6192	264	1
3	6297	268	1
3	6403	272	1
3	6506	276	1
3	6557	280	1
3	6661	284	1
3	6765	288	1
3	6870	292	1
3	6976	296	1
3	7027	300	1
3	7131	304	1
3	7235	308	1
3	7343	312	1
3	7447	316	1
3	7498	320	1
3	7603	324	1
3	7708	328	1
3	7818	332	1
3	7920	336	1
3	7971	340	1
3	8074	344	1
3	8182	348	1
3	8288	352	1
3	8393	356	1
3	8444	360	1
3	8545	364	1
3	8650	368	1
3	8753	372	1
3	8859	376	1
3	8910	380	1
3	9013	384	1
3	9119	388	1
3	9224	392	1
3	9327	396	1
3	9378	400	1
3	9483	404	1
3	9585	408	1
3	9688	412	1
3	9794	416	1
3	9845	420	1
3	9949	424	1
3	10052	428	1
3	10158	432	1
3	10265	436	1
3	10316	440	1
3	10419	444	1
3	10527	448	1
3	10628	452	1
3	10731	456	1
3	10782	460	1
3	10885	464	1
3	10992	468	1
3	11094	472	1
3	11203	476	1
3	11254	480	1
3	11357	484	1
3	11460	488	1
3	11567	492	1
3	11668	496	1
3	11719	500	1
3	11823	504	1
3	11930	508	1
3	12034	512	1
3	12139	516	1
3	12190	520	1
3	12294	524	1
3	12396	528	1
3	12501	532	1
3	12605	536	1
3	12656	540	1
3	12758	544	1
3	12862	548	1
3	12967	552	1
3	13072	556	1
3	13123	560	1
3	13229	564	1
3	13332	568	1
3	13439	572	1
3	13542	576	1
3	13593	580	1
3	13694	584	1
3	13797	588	1
3	13904	592	1
3	14006	596	1
3	14057	600	1
3	14160	604	1
3	14262	608	1
3	14369	612	1
3	14477	616	1
3	14528	620	1
3	14628	624	1
3	14730	628	1
3	14833	632	1
3	14938	636	1
3	14989	640	1
3	15094	644	1
3	15198	648	1
3	15301	652	1
3	15404	656	1
3	15455	660	1
3	15556	664	1
3	15660	668	1
3	15762	672	1
3	15865	676	1
3	15916	680	1
3	16024	684	1
3	16126	688	1
3	16232	692	1
3	16335	696	1
3	16386	700	1
3	16489	704	1
3	16594	708	1
3	16698	712	1
3	16804	716	1
3	16855	720	1
3	16959	724	1
3	17062	728	1
3	17169	732	1
3	17273	736	1
3	17324	740	1
3	17428	744	1
3	17536	748	1
3	17638	752	1
3	17746	756	1
3	17797	760	1
3	17899	764	1
3	18005	768	1
3	18108	772	1
3	18213	776	1
3	18264	780	1
3	18368	784	1
3	18469	788	1
3	18571	792	1
3	18675	796	1
3	18726	800	1
3	18827	804	1
3	18934	808	1
3	19039	812	1
3	19142	816	1
3	19193	820	1
3	19294	824	1
3	19398	828	1
3	19503	832	1
3	19607	836	1
3	19658	840	1
3	19762	844	1
3	19865	848	1
3	19967	852	1
3	20070	856	1
3	20121	860	1
3	20224	864	1
3	20331	868	1
3	20433	872	1
3	20539	876	1
3	20590	880	1
3	20695	884	1
3	20799	888	1
3	20905	892	1
3	21012	896	1
3	21063	900	1
3	21169	904	1
3	21273	908	1
3	21376	912	1
3	21480	916	1
3	21531	920	1
3	21636	924	1
3	21739	928	1
3	21842	932	1
3	21946	936	1
3	21997	940	1
3	22102	944	1
3	22209	948	1
3	22315	952	1
3	22419	956	1
3	22470	960	1
3	22573	964	1
3	22675	968	1
3	22780	972	1
3	22885	976	1
3	22936	980	1
3	23041	984	1
3	23146	988	1
3	23250	992	1
3	23356	996	1
3	23407	1000	1
3	23510	1004	1
3	23615	1008	1
3	23718	1012	1
3	23823	1016	1
3	23874	1020	1
3	23984	1024	1
3	24088	1028	1
3	24194	1032	1
3	24298	1036	1
3	24349	1040	1
3	24453	1044	1
3	24558	1048	1
3	24664	1052	1
3	24766	1056	1
3	24817	1060	1
3	24921	1064	1
3	25026	1068	1
3	25130	1072	1
3	25236	1076	1
3	25287	1080	1
3	25395	1084	1
3	25496	1088	1
3	25597	1092	1
3	25700	1096	1
3	25751	1100	1
3	25853	1104	1
3	25959	1108	1
3	26063	1112	1
3	26168	1116	1
3	26219	1120	1
3	26325	1124	1
3	26426	1128	1
3	26531	1132	1
3	26633	1136	1
3	26684	1140	1
3	26791	1144	1
3	26895	1148	1
3	26999	1152	1
3	27101	1156	1
3	27152	1160	1
3	27255	1164	1
3	27357	1168	1
3	27460	1172	1
3	27564	1176	1
3	27615	1180	1
3	27715	1184	1
3	27819	1188	1
3	27926	1192	1
3	28029	1196	1
3	28080	1200	1
3	28184	1204	1
3	28288	1208	1
3	28392	1212	1
3	28497	1216	1
3	28548	1220	1
3	28649	1224	1
3	28754	1228	1
3	28857	1232	1
3	28960	1236	1
3	29011	1240	1
3	29112	1244	1
3	29216	1248	1
3	29321	1252	1
3	29426	1256	1
3	29477	1260	1
3	29581	1264	1
3	29688	1268	1
3	29797	1272	1
3	29900	1276	1
3	29951	1280	1
3	30053	1284	1
3	30158	1288	1
3	30259	1292	1
3	30362	1296	1
3	30413	1300	1
3	30517	1304	1
3	30621	1308	1
3	30726	1312	1
3	30830	1316	1
3	30881	1320	1
3	30984	1324	1
3	31087	1328	1
3	31195	1332	1
3	31297	1336	1
3	31348	1340	1
3	31451	1344	1
3	31560	1348	1
3	31665	1352	1
3	31770	1356	1
3	31821	1360	1
3	31926	1364	1
3	32031	1368	1
3	32136	1372	1
3	32239	1376	1
3	32290	1380	1
3	32394	1384	1
3	32496	1388	1
3	32598	1392	1
3	32702	1396	1
3	32753	1400	1
3	32856	1404	1
3	32958	1408	1
3	33063	1412	1
3	33168	1416	1
3	33219	1420	1
3	33321	1424	1
3	33426	1428	1
3	33532	1432	1
3	33636	1436	1
3	33687	1440	1
3	33788	1444	1
3	33890	1448	1
3	33998	1452	1
3	34103	1456	1
3	34154	1460	1
3	34257	1464	1
3	34358	1468	1
3	34459	1472	1
3	34564	1476	1
3	34615	1480	1
3	34716	1484	1
3	34818	1488	1
3	34921	1492	1
3	35024	1496	1
3	35075	1500	1
3	35181	1504	1
3	35282	1508	1
3	35385	1512	1
3	35487	1516	1
3	35538	1520	1
3	35641	1524	1
3	35746	1528	1
3	35849	1532	1
3	35953	1536	1
3	36004	1540	1
3	36109	1544	1
3	36214	1548	1
3	36320	1552	1
3	36426	1556	1
3	36477	1560	1
3	36578	1564	1
3	36684	1568	1
3	36786	1572	1
3	36889	1576	1
3	36940	1580	1
3	37044	1584	1
3	37148	1588	1
3	37255	1592	1
3	37357	1596	1
3	37408	1600	1
3	37510	1604	1
3	37615	1608	1
3	37722	1612	1
3	37828	1616	1
3	37879	1620	1
3	37979	1624	1
3	38081	1628	1
3	38186	1632	1
3	38293	1636	1
3	38344	1640	1
3	38445	1644	1
3	38550	1648	1
3	38652	1652	1
3	38754	1656	1
3	38805	1660	1
3	38908	1664	1
3	39014	1668	1
3	39118	1672	1
3	39225	1676	1
3	39276	1680	1
3	39377	1684	1
3	39483	1688	1
3	39587	1692	1
3	39690	1696	1
3	39741	1700	1
3	39845	1704	1
3	39949	1708	1
3	40057	1712	1
3	40161	1716	1
3	40212	1720	1
3	40316	1724	1
3	40420	1728	1
3	40522	1732	1
3	40625	1736	1
3	40676	1740	1
3	40783	1744	1
3	40886	1748	1
3	40994	1752	1
3	41098	1756	1
3	41149	1760	1
3	41251	1764	1
3	41355	1768	1
3	41459	1772	1
3	41563	1776	1
3	41614	1780	1
3	41717	1784	1
3	41820	1788	1
3	41925	1792	1
3	42029	1796	1
3	42080	1800	1
3	42184	1804	1
3	42288	1808	1
3	42393	1812	1
3	42497	1816	1
3	42548	1820	1
3	42651	1824	1
3	42758	1828	1
3	42862	1832	1
3	42965	1836	1
3	43016	1840	1
3	43120	1844	1
3	43225	1848	1
3	43332	1852	1
3	43435	1856	1
3	43486	1860	1
3	43587	1864	1
3	43691	1868	1
3	43797	1872	1
3	43901	1876	1
3	43952	1880	1
3	44053	1884	1
3	44157	1888	1
3	44262	1892	1
3	44368	1896	1
3	44419	1900	1
3	44526	1904	1
3	44629	1908	1
3	44734	1912	1
3	44840	1916	1
3	44891	1920	1
3	44993	1924	1
3	45098	1928	1
3	45205	1932	1
3	45309	1936	1
3	45360	1940	1
3	45465	1944	1
3	45570	1948	1
3	45675	1952	1
3	45779	1956	1
3	45830	1960	1
3	45933	1964	1
3	46039	1968	1
3	46144	1972	1
3	46250	1976	1
3	46301	1980	1
3	46404	1984	1
3	46506	1988	1
3	46608	1992	1
3	46712	1996	1
3	46763	2000	1
3	46866	2004	1
3	46968	2008	1
3	47071	2012	1
3	47177	2016	1
3	47228	2020	1
3	47329	2024	1
3	47434	2028	1
3	47538	2032	1
3	47642	2036	1
3	47693	2040	1
3	47796	2044	1
3	47904	2048	1
3	48005	2052	1
3	48106	2056	1
3	48157	2060	1
3	48261	2064	1
3	48368	2068	1
3	48471	2072	1
3	48577	2076	1
3	48628	2080	1
3	48733	2084	1
3	48835	2088	1
3	48938	2092	1
3	49041	2096	1
3	49092	2100	1
3	49195	2104	1
3	49302	2108	1
3	49407	2112	1
3	49511	2116	1
3	49562	2120	1
3	49664	2124	1
3	49769	2128	1
3	49878	2132	1
3	49981	2136	1
3	50032	2140	1
3	50135	2144	1
3	50241	2148	1
3	50345	2152	1
3	50448	2156	1
3	50499	2160	1
3	50600	2164	1
3	50708	2168	1
3	50810	2172	1
3	50914	2176	1
3	50965	2180	1
3	51069	2184	1
3	51170	2188	1
3	51273	2192	1
3	51376	2196	1
3	51427	2200	1
3	51528	2204	1
3	51632	2208	1
3	51739	2212	1
3	51842	2216	1
3	51893	2220	1
3	51999	2224	1
3	52102	2228	1
3	52207	2232	1
3	52313	2236	1
3	52364	2240	1
3	52470	2244	1
3	52572	2248	1
3	52676	2252	1
3	52780	2256	1
3	52831	2260	1
3	52935	2264	1
3	53038	2268	1
3	53141	2272	1
3	53248	2276	1
3	53299	2280	1
3	53400	2284	1
3	53507	2288	1
3	53611	2292	1
3	53716	2296	1
3	53767	2300	1
3	53869	2304	1
3	53975	2308	1
3	54078	2312	1
3	54180	2316	1
3	54231	2320	1
3	54332	2324	1
3	54436	2328	1
3	54538	2332	1
3	54641	2336	1
3	54692	2340	1
3	54795	2344	1
3	54899	2348	1
3	55005	2352	1
3	55109	2356	1
3	55160	2360	1
3	55264	2364	1
3	55365	2368	1
3	55466	2372	1
3	55570	2376	1
3	55621	2380	1
3	55728	2384	1
3	55831	2388	1
3	55935	2392	1
3	56037	2396	1
3	56088	2400	1
3	56191	2404	1
3	56293	2408	1
3	56399	2412	1
3	56503	2416	1
3	56554	2420	1
3	56655	2424	1
3	56757	2428	1
3	56860	2432	1
3	56963	2436	1
3	57014	2440	1
3	57118	2444	1
3	57221	2448	1
3	57323	2452	1
3	57428	2456	1
3	57479	2460	1
3	57583	2464	1
3	57691	2468	1
3	57793	2472	1
3	57896	2476	1
3	57947	2480	1
3	58050	2484	1
3	58153	2488	1
3	58258	2492	1
3	58361	2496	1
3	58412	2500	1
3	58517	2504	1
3	58619	2508	1
3	58725	2512	1
3	58826	2516	1
3	58877	2520	1
3	58979	2524	1
3	59085	2528	1
3	59190	2532	1
3	59293	2536	1
3	59344	2540	1
3	59449	2544	1
3	59554	2548	1
3	59658	2552	1
3	59759	2556	1
3	59810	2560	1
3	59914	2564	1
3	60017	2568	1
3	60122	2572	1
3	60226	2576	1
3	60277	2580	1
3	60381	2584	1
3	60487	2588	1
3	60591	2592	1
3	60695	2596	1
3	60746	2600	1
3	60850	2604	1
3	60955	2608	1
3	61060	2612	1
3	61162	2616	1
3	61213	2620	1
3	61315	2624	1
3	61419	2628	1
3	61525	2632	1
3	61632	2636	1
3	61683	2640	1
3	61785	2644	1
3	61891	2648	1
3	61992	2652	1
3	62093	2656	1
3	62144	2660	1
3	62246	2664	1
3	62348	2668	1
3	62452	2672	1
3	62556	2676	1
3	62607	2680	1
3	62709	2684	1
3	62813	2688	1
3	62916	2692	1
3	63020	2696	1
3	63071	2700	1
3	63174	2704	1
3	63280	2708	1
3	63387	2712	1
3	63488	2716	1
3	63539	2720	1
3	63644	2724	1
3	63749	2728	1
3	63853	2732	1
3	63960	2736	1
3	64011	2740	1
3	64113	2744	1
3	64218	2748	1
3	64321	2752	1
3	64424	2756	1
3	64475	2760	1
3	64579	2764	1
3	64681	2768	1
3	64786	2772	1
3	64891	2776	1
3	64942	2780	1
3	65043	2784	1
3	65148	2788	1
3	65253	2792	1
3	65356	2796	1
3	65407	2800	1
3	65511	2804	1
3	65615	2808	1
3	65718	2812	1
3	65822	2816	1
3	65873	2820	1
3	65975	2824	1
3	66079	2828	1
3	66183	2832	1
3	66286	2836	1
3	66337	2840	1
3	66438	2844	1
3	66542	2848	1
3	66649	2852	1
3	66756	2856	1
3	66807	2860	1
3	66910	2864	1
3	67017	2868	1
3	67120	2872	1
3	67226	2876	1
3	67277	2880	1
3	67382	2884	1
3	67485	2888	1
3	67589	2892	1
3	67692	2896	1
3	67743	2900	1
3	67845	2904	1
3	67949	2908	1
3	68052	2912	1
3	68157	2916	1
3	68208	2920	1
3	68311	2924	1
3	68415	2928	1
3	68519	2932	1
3	68623	2936	1
3	68674	2940	1
3	68775	2944	1
3	68878	2948	1
3	68984	2952	1
3	69089	2956	1
3	69140	2960	1
3	69243	2964	1
3	69347	2968	1
3	69454	2972	1
3	69556	2976	1
3	69607	2980	1
3	69710	2984	1
3	69815	2988	1
3	69922	2992	1
3	70025	2996	1
3	70076	3000	1
3	70176	3004	1
3	70278	3008	1
3	70384	3012	1
3	70488	3016	1
3	70539	3020	1
3	70648	3024	1
3	70750	3028	1
3	70853	3032	1
3	70956	3036	1
3	71007	3040	1
3	71111	3044	1
3	71214	3048	1
3	71318	3052	1
3	71421	3056	1
3	71472	3060	1
3	71577	3064	1
3	71685	3068	1
3	71788	3072	1
3	71892	3076	1
3	71943	3080	1
3	72047	3084	1
3	72156	3088	1
3	72258	3092	1
3	72362	3096	1
3	72413	3100	1
3	72517	3104	1
3	72622	3108	1
3	72727	3112	1
3	72829	3116	1
3	72880	3120	1
3	72981	3124	1
3	73088	3128	1
3	73192	3132	1
3	73295	3136	1
3	73346	3140	1
3	73450	3144	1
3	73553	3148	1
3	73658	3152	1
3	73765	3156	1
3	73816	3160	1
3	73920	3164	1
3	74022	3168	1
3	74125	3172	1
3	74230	3176	1
3	74281	3180	1
3	74384	3184	1
3	74488	3188	1
3	74594	3192	1
3	74698	3196	1
3	74749	3200	1
3	74853	3204	1
3	74958	3208	1
3	75066	3212	1
3	75168	3216	1
3	75219	3220	1
3	75321	3224	1
3	75424	3228	1
3	75529	3232	1
3	75632	3236	1
3	75683	3240	1
3	75789	3244	1
3	75892	3248	1
3	75998	3252	1
3	76101	3256	1
3	76152	3260	1
3	76254	3264	1
3	76359	3268	1
3	76465	3272	1
3	76572	3276	1
3	76623	3280	1
3	76724	3284	1
3	76827	3288	1
3	76931	3292	1
3	77035	3296	1
3	77086	3300	1
3	77193	3304	1
3	77295	3308	1
3	77399	3312	1
3	77505	3316	1
3	77556	3320	1
3	77658	3324	1
3	77763	3328	1
3	77870	3332	1
3	77974	3336	1
3	78025	3340	1
3	78129	3344	1
3	78231	3348	1
3	78337	3352	1
3	78442	3356	1
3	78493	3360	1
3	78595	3364	1
3	78701	3368	1
3	78804	3372	1
3	78909	3376	1
3	78960	3380	1
3	79064	3384	1
3	79171	3388	1
3	79276	3392	1
3	79380	3396	1
3	79431	3400	1
3	79532	3404	1
3	79635	3408	1
3	79741	3412	1
3	79846	3416	1
3	79897	3420	1
3	79999	3424	1
3	80102	3428	1
3	80208	3432	1
3	80313	3436	1
3	80364	3440	1
3	80468	3444	1
3	80571	3448	1
3	80675	3452	1
3	80780	3456	1
3	80831	3460	1
3	80932	3464	1
3	81036	3468	1
3	81141	3472	1
3	81244	3476	1
3	81295	3480	1
3	81397	3484	1
3	81504	3488	1
3	81608	3492	1
3	81710	3496	1
3	81761	3500	1
3	81865	3504	1
3	81970	3508	1
3	82073	3512	1
3	82177	3516	1
3	82228	3520	1
3	82330	3524	1
3	82434	3528	1
3	82538	3532	1
3	82642	3536	1
3	82693	3540	1
3	82794	3544	1
3	82899	3548	1
3	83003	3552	1
3	83106	3556	1
3	83157	3560	1
3	83259	3564	1
3	83363	3568	1
3	83466	3572	1
3	83569	3576	1
3	83620	3580	1
3	83724	3584	1
3	83826	3588	1
3	83929	3592	1
3	84032	3596	1
3	84083	3600	1
4	5	4	1
4	124	8	1
4	238	12	1
4	350	16	1
4	401	20	1
4	507	24	1
4	610	28	1
4	724	32	1
4	835	36	1
4	886	40	1
4	992	44	1
4	1101	48	1
4	1210	52	1
4	1314	56	1
4	1365	60	1
4	1473	64	1
4	1579	68	1
4	1687	72	1
4	1793	76	1
4	1844	80	1
4	1949	84	1
4	2053	88	1
4	2164	92	1
4	2270	96	1
4	2321	100	1
4	2430	104	1
4	2532	108	1
4	2636	112	1
4	2742	116	1
4	2793	120	1
4	2896	124	1
4	3001	128	1
4	3109	132	1
4	3215	136	1
4	3266	140	1
4	3372	144	1
4	3475	148	1
4	3583	152	1
4	3689	156	1
4	3740	160	1
4	3846	164	1
4	3950	168	1
4	4053	172	1
4	4160	176	1
4	4211	180	1
4	4314	184	1
4	4418	188	1
4	4526	192	1
4	4629	196	1
4	4680	200	1
4	4786	204	1
4	4892	208	1
4	5000	212	1
4	5105	216	1
4	5156	220	1
4	5257	224	1
4	5362	228	1
4	5464	232	1
4	5570	236	1
4	5621	240	1
4	5724	244	1
4	5831	248	1
4	5934	252	1
4	6041	256	1
4	6092	260	1
4	6193	264	1
4	6298	268	1
4	6404	272	1
4	6507	276	1
4	6558	280	1
4	6662	284	1
4	6766	288	1
4	6871	292	1
4	6977	296	1
4	7028	300	1
4	7132	304	1
4	7236	308	1
4	7344	312	1
4	7448	316	1
4	7499	320	1
4	7604	324	1
4	7709	328	1
4	7819	332	1
4	7921	336	1
4	7972	340	1
4	8075	344	1
4	8183	348	1
4	8289	352	1
4	8394	356	1
4	8445	360	1
4	8546	364	1
4	8651	368	1
4	8754	372	1
4	8860	376	1
4	8911	380	1
4	9014	384	1
4	9120	388	1
4	9225	392	1
4	9328	396	1
4	9379	400	1
4	9484	404	1
4	9586	408	1
4	9689	412	1
4	9795	416	1
4	9846	420	1
4	9950	424	1
4	10053	428	1
4	10159	432	1
4	10266	436	1
4	10317	440	1
4	10420	444	1
4	10528	448	1
4	10629	452	1
4	10732	456	1
4	10783	460	1
4	10886	464	1
4	10993	468	1
4	11095	472	1
4	11204	476	1
4	11255	480	1
4	11358	484	1
4	11461	488	1
4	11568	492	1
4	11669	496	1
4	11720	500	1
4	11824	504	1
4	11931	508	1
4	12035	512	1
4	12140	516	1
4	12191	520	1
4	12295	524	1
4	12397	528	1
4	12502	532	1
4	12606	536	1
4	12657	540	1
4	12759	544	1
4	12863	548	1
4	12968	552	1
4	13073	556	1
4	13124	560	1
4	13230	564	1
4	13333	568	1
4	13440	572	1
4	13543	576	1
4	13594	580	1
4	13695	584	1
4	13798	588	1
4	13905	592	1
4	14007	596	1
4	14058	600	1
4	14161	604	1
4	14263	608	1
4	14370	612	1
4	14478	616	1
4	14529	620	1
4	14629	624	1
4	14731	628	1
4	14834	632	1
4	14939	636	1
4	14990	640	1
4	15095	644	1
4	15199	648	1
4	15302	652	1
4	15405	656	1
4	15456	660	1
4	15557	664	1
4	15661	668	1
4	15763	672	1
4	15866	676	1
4	15917	680	1
4	16025	684	1
4	16127	688	1
4	16233	692	1
4	16336	696	1
4	16387	700	1
4	16490	704	1
4	16595	708	1
4	16699	712	1
4	16805	716	1
4	16856	720	1
4	16960	724	1
4	17063	728	1
4	17170	732	1
4	17274	736	1
4	17325	740	1
4	17429	744	1
4	17537	748	1
4	17639	752	1
4	17747	756	1
4	17798	760	1
4	17900	764	1
4	18006	768	1
4	18109	772	1
4	18214	776	1
4	18265	780	1
4	18369	784	1
4	18470	788	1
4	18572	792	1
4	18676	796	1
4	18727	800	1
4	18828	804	1
4	18935	808	1
4	19040	812	1
4	19143	816	1
4	19194	820	1
4	19295	824	1
4	19399	828	1
4	19504	832	1
4	19608	836	1
4	19659	840	1
4	19763	844	1
4	19866	848	1
4	19968	852	1
4	20071	856	1
4	20122	860	1
4	20225	864	1
4	20332	868	1
4	20434	872	1
4	20540	876	1
4	20591	880	1
4	20696	884	1
4	20800	888	1
4	20906	892	1
4	21013	896	1
4	21064	900	1
4	21170	904	1
4	21274	908	1
4	21377	912	1
4	21481	916	1
4	21532	920	1
4	21637	924	1
4	21740	928	1
4	21843	932	1
4	21947	936	1
4	21998	940	1
4	22103	944	1
4	22210	948	1
4	22316	952	1
4	22420	956	1
4	22471	960	1
4	22574	964	1
4	22676	968	1
4	22781	972	1
4	22886	976	1
4	22937	980	1
4	23042	984	1
4	23147	988	1
4	23251	992	1
4	23357	996	1
4	23408	1000	1
4	23511	1004	1
4	23616	1008	1
4	23719	1012	1
4	23824	1016	1
4	23875	1020	1
4	23985	1024	1
4	24089	1028	1
4	24195	1032	1
4	24299	1036	1
4	24350	1040	1
4	24454	1044	1
4	24559	1048	1
4	24665	1052	1
4	24767	1056	1
4	24818	1060	1
4	24922	1064	1
4	25027	1068	1
4	25131	1072	1
4	25237	1076	1
4	25288	1080	1
4	25396	1084	1
4	25497	1088	1
4	25598	1092	1
4	25701	1096	1
4	25752	1100	1
4	25854	1104	1
4	25960	1108	1
4	26064	1112	1
4	26169	1116	1
4	26220	1120	1
4	26326	1124	1
4	26427	1128	1
4	26532	1132	1
4	26634	1136	1
4	26685	1140	1
4	26792	1144	1
4	26896	1148	1
4	27000	1152	1
4	27102	1156	1
4	27153	1160	1
4	27256	1164	1
4	27358	1168	1
4	27461	1172	1
4	27565	1176	1
4	27616	1180	1
4	27716	1184	1
4	27820	1188	1
4	27927	1192	1
4	28030	1196	1
4	28081	1200	1
4	28185	1204	1
4	28289	1208	1
4	28393	1212	1
4	28498	1216	1
4	28549	1220	1
4	28650	1224	1
4	28755	1228	1
4	28858	1232	1
4	28961	1236	1
4	29012	1240	1
4	29113	1244	1
4	29217	1248	1
4	29322	1252	1
4	29427	1256	1
4	29478	1260	1
4	29582	1264	1
4	29689	1268	1
4	29798	1272	1
4	29901	1276	1
4	29952	1280	1
4	30054	1284	1
4	30159	1288	1
4	30260	1292	1
[...]
129	64061	2740	1392
129	65092	2785	1261
129	71993	3080	476
129	72096	3085	477
129	72307	3095	451
129	73708	3155	411
129	74071	3170	382
129	74174	3175	91
130	4729	200	1
130	9634	410	1
130	10468	445	1
130	12551	535	1
130	14311	610	1
130	16905	720	1
130	17111	730	1
130	17218	735	1
130	17372	740	1
130	21891	935	1
130	25075	1070	1
130	25179	1075	1
130	26945	1150	1
130	31500	1345	1
130	35586	1520	1
130	60796	2600	1
130	60901	2605	1
130	61732	2640	1
130	64061	2740	1
130	65092	2785	1
130	71993	3080	1
130	72096	3085	1
130	72307	3095	1
130	73708	3155	1
130	74071	3170	1
130	74174	3175	1
131	4837	205	1
131	6347	270	1
132	4837	205	201
132	6347	270	262
133	4837	205	1
133	6347	270	1
134	5512	235	1
134	6814	290	1
134	13381	570	1
134	17009	725	1
135	5512	235	231
135	6814	290	282
135	13381	570	558
135	17009	725	709
136	5512	235	1
136	6814	290	1
136	13381	570	1
136	17009	725	1
137	5984	255	1
138	5984	255	251
139	5984	255	1
140	6241	265	1
140	16283	695	1
140	19554	835	1
140	20383	870	1
140	27406	1170	1
140	30463	1300	1
140	30671	1310	1
141	6241	265	261
141	16283	695	687
141	19554	835	823
141	20383	870	854
141	27406	1170	1150
141	30463	1300	1032
141	30671	1310	614
142	6241	265	1
142	16283	695	1
142	19554	835	1
142	20383	870	1
142	27406	1170	1
142	30463	1300	1
142	30671	1310	1
143	6921	295	1
143	7075	300	1
143	43849	1875	1
143	44102	1885	1
143	44206	1890	1
143	44311	1895	1
143	44678	1910	1
143	44941	1920	1
143	49246	2105	1
143	50080	2140	1
143	50184	2145	1
143	51683	2210	1
143	52621	2250	1
143	52986	2265	1
143	53920	2305	1
143	56704	2425	1
143	57634	2465	1
144	6921	295	291
144	7075	300	292
144	43849	1875	1863
144	44102	1885	1869
144	44206	1890	1870
144	44311	1895	1599
144	44678	1910	1606
144	44941	1920	44
144	49246	2105	217
144	50080	2140	248
144	50184	2145	249
144	51683	2210	298
144	52621	2250	326
144	52986	2265	157
144	53920	2305	161
144	56704	2425	277
144	57634	2465	253
145	6921	295	1
145	7075	300	1
145	43849	1875	1
145	44102	1885	1
145	44206	1890	1
145	44311	1895	1
145	44678	1910	1
145	44941	1920	1
145	49246	2105	1
145	50080	2140	1
145	50184	2145	1
145	51683	2210	1
145	52621	2250	1
145	52986	2265	1
145	53920	2305	1
145	56704	2425	1
145	57634	2465	1
146	7181	305	1
146	8493	360	1
146	12240	520	1
146	12343	525	1
146	15811	675	1
146	18876	805	1
146	22724	970	1
146	24397	1040	1
146	35797	1530	1
146	36054	1540	1
146	36159	1545	1
146	39534	1690	1
146	40262	1720	1
146	41871	1790	1
146	45408	1940	1
146	57842	2475	1
146	61468	2630	1
146	65197	2790	1
146	65457	2800	1
146	66487	2845	1
146	67894	2905	1
146	67998	2910	1
146	68101	2915	1
146	68824	2945	1
146	69396	2970	1
147	7181	305	301
147	8493	360	352
147	12240	520	508
147	12343	525	509
147	15811	675	655
147	18876	805	497
147	22724	970	606
147	24397	1040	516
147	35797	1530	1002
147	36054	1540	864
147	36159	1545	737
147	39534	1690	718
147	40262	1720	676
147	41871	1790	258
147	45408	1940	396
147	57842	2475	927
147	61468	2630	938
147	65197	2790	1066
147	65457	2800	1008
147	66487	2845	901
147	67894	2905	429
147	67998	2910	278
147	68101	2915	123
147	68824	2945	141
147	69396	2970	122
148	7181	305	1
148	8493	360	1
148	12240	520	1
148	12343	525	1
148	15811	675	1
148	18876	805	1
148	22724	970	1
148	24397	1040	1
148	35797	1530	1
148	36054	1540	1
148	36159	1545	1
148	39534	1690	1
148	40262	1720	1
148	41871	1790	1
148	45408	1940	1
148	57842	2475	1
148	61468	2630	1
148	65197	2790	1
148	65457	2800	1
148	66487	2845	1
148	67894	2905	1
148	67998	2910	1
148	68101	2915	1
148	68824	2945	1
148	69396	2970	1
149	7284	310	1
149	7546	320	1
149	8125	345	1
149	9426	400	1
149	10830	460	1
149	16175	690	1
149	16747	715	1
149	23299	995	1
149	23455	1000	1
149	23767	1015	1
149	28441	1215	1
149	31714	1355	1
149	36835	1575	1
149	36988	1580	1
149	38130	1630	1
149	38957	1665	1
149	40935	1750	1
149	41300	1765	1
149	43534	1860	1
150	7284	310	306
150	7546	320	312
150	8125	345	333
150	9426	400	384
150	10830	460	440
150	16175	690	378
150	16747	715	391
150	23299	995	647
150	23455	1000	596
150	23767	1015	551
150	28441	1215	523
150	31714	1355	639
150	36835	1575	579
150	36988	1580	576
150	38130	1630	614
150	38957	1665	449
150	40935	1750	394
150	41300	1765	189
150	43534	1860	276
151	7284	310	1
151	7546	320	1
151	8125	345	1
151	9426	400	1
151	10830	460	1
151	16175	690	1
151	16747	715	1
151	23299	995	1
151	23455	1000	1
151	23767	1015	1
151	28441	1215	1
151	31714	1355	1
151	36835	1575	1
151	36988	1580	1
151	38130	1630	1
151	38957	1665	1
151	40935	1750	1
151	41300	1765	1
151	43534	1860	1
152	7286	310	1
152	7757	330	1
152	62655	2680	1
152	64267	2750	1
152	73030	3125	1
152	76773	3285	1
152	76876	3290	1
152	76980	3295	1
152	77344	3310	1
152	77448	3315	1
152	79008	3380	1
152	79113	3385	1
152	80151	3430	1
152	80413	3440	1
152	81809	3500	1
152	83205	3560	1
152	83515	3575	1
152	83875	3590	1
152	83978	3595	1
152	84131	3600	1
153	7286	310	306
153	7757	330	322
153	62655	2680	2668
153	64267	2750	2734
153	73030	3125	3105
153	76773	3285	2973
153	76876	3290	2958
153	76980	3295	611
153	77344	3310	558
153	77448	3315	187
153	79008	3380	92
153	79113	3385	93
153	80151	3430	134
153	80413	3440	128
153	81809	3500	184
153	83205	3560	176
153	83515	3575	187
153	83875	3590	158
153	83978	3595	151
153	84131	3600	96
154	7286	310	1
154	7757	330	1
154	62655	2680	1
154	64267	2750	1
154	73030	3125	1
154	76773	3285	1
154	76876	3290	1
154	76980	3295	1
154	77344	3310	1
154	77448	3315	1
154	79008	3380	1
154	79113	3385	1
154	80151	3430	1
154	80413	3440	1
154	81809	3500	1
154	83205	3560	1
154	83515	3575	1
154	83875	3590	1
154	83978	3595	1
154	84131	3600	1
155	8019	340	1
155	8123	345	1
155	8231	350	1
155	8802	375	1
155	11408	485	1
155	22519	960	1
155	22831	975	1
155	29267	1250	1
155	29370	1255	1
155	30931	1320	1
155	37664	1610	1
155	48785	2085	1
155	52151	2230	1
155	52415	2240	1
155	53918	2305	1
155	60066	2570	1
155	61364	2625	1
155	62397	2670	1
155	62501	2675	1
155	63223	2705	1
155	63800	2730	1
155	64370	2755	1
155	68465	2930	1
155	72463	3100	1
155	72566	3105	1
155	72779	3115	1
155	74435	3185	1
155	74799	3200	1
155	74902	3205	1
155	76410	3270	1
155	76514	3275	1
156	8019	340	336
156	8123	345	337
156	8231	350	338
156	8802	375	359
156	11408	485	465
156	22519	960	616
156	22831	975	627
156	29267	1250	898
156	29370	1255	879
156	30931	1320	832
156	37664	1610	646
156	48785	2085	1109
156	52151	2230	978
156	52415	2240	984
156	53918	2305	981
156	60066	2570	958
156	61364	2625	537
156	62397	2670	438
156	62501	2675	431
156	63223	2705	397
156	63800	2730	158
156	64370	2755	127
156	68465	2930	258
156	72463	3100	424
156	72566	3105	397
156	72779	3115	383
156	74435	3185	429
156	74799	3200	268
156	74902	3205	101
156	76410	3270	162
156	76514	3275	159
157	8019	340	1
157	8123	345	1
157	8231	350	1
157	8802	375	1
157	11408	485	1
157	22519	960	1
157	22831	975	1
157	29267	1250	1
157	29370	1255	1
157	30931	1320	1
157	37664	1610	1
157	48785	2085	1
157	52151	2230	1
157	52415	2240	1
157	53918	2305	1
157	60066	2570	1
157	61364	2625	1
157	62397	2670	1
157	62501	2675	1
157	63223	2705	1
157	63800	2730	1
157	64370	2755	1
157	68465	2930	1
157	72463	3100	1
157	72566	3105	1
157	72779	3115	1
157	74435	3185	1
157	74799	3200	1
157	74902	3205	1
157	76410	3270	1
157	76514	3275	1
158	8959	380	1
158	9737	415	1
158	32186	1375	1
158	40000	1710	1
158	41869	1790	1
158	41974	1795	1
158	42235	1805	1
158	42596	1820	1
158	54948	2350	1
158	75579	3235	1
158	79790	3415	1
158	80517	3445	1
159	8959	380	376
159	9737	415	407
159	32186	1375	1363
159	40000	1710	1694
159	41869	1790	1770
159	41974	1795	1411
159	42235	1805	1389
159	42596	1820	444
159	54948	2350	638
159	75579	3235	1443
159	79790	3415	1619
159	80517	3445	1637
160	8959	380	1
160	9737	415	1
160	32186	1375	1
160	40000	1710	1
160	41869	1790	1
160	41974	1795	1
160	42235	1805	1
160	42596	1820	1
160	54948	2350	1
160	75579	3235	1
160	79790	3415	1
160	80517	3445	1
161	10103	430	1
161	10208	435	1
161	11875	505	1
161	13281	565	1
161	13743	585	1
161	13846	590	1
161	18314	780	1
161	18620	795	1
161	20169	860	1
161	30777	1315	1
161	30929	1320	1
161	47017	2010	1
161	47279	2020	1
161	48678	2080	1
161	53449	2285	1
161	66591	2850	1
161	68258	2920	1
161	69867	2990	1
161	71055	3040	1
161	71160	3045	1
161	71263	3050	1
161	71520	3060	1
161	71626	3065	1
161	77134	3300	1
161	77450	3315	1
161	78388	3355	1
162	10103	430	426
162	10208	435	427
162	11875	505	493
162	13281	565	549
162	13743	585	565
162	13846	590	158
162	18314	780	344
162	18620	795	287
162	20169	860	292
162	30777	1315	727
162	30929	1320	728
162	47017	2010	1226
162	47279	2020	1224
162	48678	2080	1216
162	53449	2285	969
162	66591	2850	1526
162	68258	2920	908
162	69867	2990	966
162	71055	3040	956
162	71160	3045	757
162	71263	3050	198
162	71520	3060	136
162	71626	3065	73
162	77134	3300	256
162	77450	3315	267
162	78388	3355	303
163	10103	430	1
163	10208	435	1
163	11875	505	1
163	13281	565	1
163	13743	585	1
163	13846	590	1
163	18314	780	1
163	18620	795	1
163	20169	860	1
163	30777	1315	1
163	30929	1320	1
163	47017	2010	1
163	47279	2020	1
163	48678	2080	1
163	53449	2285	1
163	66591	2850	1
163	68258	2920	1
163	69867	2990	1
163	71055	3040	1
163	71160	3045	1
163	71263	3050	1
163	71520	3060	1
163	71626	3065	1
163	77134	3300	1
163	77450	3315	1
163	78388	3355	1
164	10832	460	1
164	13172	560	1
164	15964	680	1
164	17687	755	1
164	17845	760	1
164	18056	770	1
164	20956	895	1
164	23769	1015	1
164	24038	1025	1
164	24971	1065	1
164	27200	1160	1
165	10832	460	456
165	13172	560	552
165	15964	680	668
165	17687	755	739
165	17845	760	740
165	18056	770	306
165	20956	895	331
165	23769	1015	331
165	24038	1025	269
165	24971	1065	301
165	27200	1160	388
166	10832	460	1
166	13172	560	1
166	15964	680	1
166	17687	755	1
166	17845	760	1
166	18056	770	1
166	20956	895	1
166	23769	1015	1
166	24038	1025	1
166	24971	1065	1
166	27200	1160	1
167	10934	465	1
168	10934	465	461
169	10934	465	1
170	11509	490	1
170	14779	630	1
171	11509	490	486
171	14779	630	622
172	11509	490	1
172	14779	630	1
173	12912	550	1
173	17477	745	1
173	19343	825	1
173	19447	830	1
173	19552	835	1
173	19706	840	1
173	20848	890	1
173	44313	1895	1
173	44467	1900	1
173	51941	2220	1
173	65455	2800	1
173	65923	2820	1
173	70589	3020	1
173	73394	3140	1
173	73602	3150	1
173	74433	3185	1
173	76303	3265	1
173	77707	3325	1
173	77812	3330	1
173	78541	3360	1
173	79010	3380	1
173	79222	3390	1
174	12912	550	546
174	17477	745	737
174	19343	825	813
174	19447	830	814
174	19552	835	815
174	19706	840	288
174	20848	890	142
174	44313	1895	1067
174	44467	1900	1068
174	51941	2220	1384
174	65455	2800	1956
174	65923	2820	1928
174	70589	3020	1124
174	73394	3140	1236
174	73602	3150	926
174	74433	3185	381
174	76303	3265	441
174	77707	3325	301
174	77812	3330	186
174	78541	3360	208
174	79010	3380	192
174	79222	3390	122
175	12912	550	1
175	17477	745	1
175	19343	825	1
175	19447	830	1
175	19552	835	1
175	19706	840	1
175	20848	890	1
175	44313	1895	1
175	44467	1900	1
175	51941	2220	1
175	65455	2800	1
175	65923	2820	1
175	70589	3020	1
175	73394	3140	1
175	73602	3150	1
175	74433	3185	1
175	76303	3265	1
175	77707	3325	1
175	77812	3330	1
175	78541	3360	1
175	79010	3380	1
175	79222	3390	1
176	13017	555	1
176	13956	595	1
177	13017	555	551
177	13956	595	587
178	13017	555	1
178	13956	595	1
179	14421	615	1
179	24139	1030	1
179	38494	1645	1
179	51577	2205	1
180	14421	615	611
180	24139	1030	1022
180	38494	1645	1633
180	51577	2205	2189
181	14421	615	1
181	24139	1030	1
181	38494	1645	1
181	51577	2205	1
182	14882	635	1
182	33939	1450	1
182	34867	1490	1
182	37666	1610	1
182	38701	1655	1
182	39638	1695	1
182	39897	1705	1
182	42128	1800	1
182	44208	1890	1
182	55671	2380	1
182	67327	2880	1
182	67431	2885	1
182	71522	3060	1
182	74904	3205	1
182	76982	3295	1
182	78075	3340	1
182	79684	3410	1
182	79947	3420	1
182	80259	3435	1
182	81192	3475	1
182	82124	3515	1
182	83207	3560	1
183	14882	635	631
183	33939	1450	1442
183	34867	1490	1478
183	37666	1610	1594
183	38701	1655	1635
183	39638	1695	1059
183	39897	1705	253
183	42128	1800	308
183	44208	1890	278
183	55671	2380	724
183	67327	2880	1184
183	67431	2885	1177
183	71522	3060	1256
183	74904	3205	1313
183	76982	3295	911
183	78075	3340	456
183	79684	3410	522
183	79947	3420	356
183	80259	3435	227
183	81192	3475	179
183	82124	3515	171
183	83207	3560	148
184	14882	635	1
184	33939	1450	1
184	34867	1490	1
184	37666	1610	1
184	38701	1655	1
184	39638	1695	1
184	39897	1705	1
184	42128	1800	1
184	44208	1890	1
184	55671	2380	1
184	67327	2880	1
184	67431	2885	1
184	71522	3060	1
184	74904	3205	1
184	76982	3295	1
184	78075	3340	1
184	79684	3410	1
184	79947	3420	1
184	80259	3435	1
184	81192	3475	1
184	82124	3515	1
184	83207	3560	1
185	16434	700	1
185	20016	855	1
185	24137	1030	1
185	27509	1175	1
185	34663	1480	1
185	37197	1590	1
185	38237	1635	1
185	40937	1750	1
185	41197	1760	1
185	41404	1770	1
185	43170	1845	1
185	47587	2035	1
185	47741	2040	1
185	48311	2065	1
185	49713	2125	1
185	49818	2130	1
185	53190	2275	1
185	63694	2725	1
185	75941	3250	1
185	77814	3330	1
185	78644	3365	1
186	16434	700	696
186	20016	855	847
186	24137	1030	1018
186	27509	1175	1159
186	34663	1480	1460
186	37197	1590	886
186	38237	1635	779
186	40937	1750	718
186	41197	1760	584
186	41404	1770	286
186	43170	1845	253
186	47587	2035	399
186	47741	2040	288
186	48311	2065	301
186	49713	2125	353
186	49818	2130	282
186	53190	2275	239
186	63694	2725	681
186	75941	3250	1182
186	77814	3330	1202
186	78644	3365	1233
187	16434	700	1
187	20016	855	1
187	24137	1030	1
187	27509	1175	1
187	34663	1480	1
187	37197	1590	1
187	38237	1635	1
187	40937	1750	1
187	41197	1760	1
187	41404	1770	1
187	43170	1845	1
187	47587	2035	1
187	47741	2040	1
187	48311	2065	1
187	49713	2125	1
187	49818	2130	1
187	53190	2275	1
187	63694	2725	1
187	75941	3250	1
187	77814	3330	1
187	78644	3365	1
188	20275	865	1
188	21322	910	1
188	23092	985	1
188	23922	1020	1
188	24503	1045	1
188	27869	1190	1
188	29372	1255	1
188	29525	1260	1
188	40571	1735	1
188	45410	1940	1
188	45880	1960	1
188	49715	2125	1
189	20275	865	861
189	21322	910	902
189	23092	985	973
189	23922	1020	1004
189	24503	1045	1025
189	27869	1190	322
189	29372	1255	343
189	29525	1260	272
189	40571	1735	711
189	45410	1940	892
189	45880	1960	768
189	49715	2125	869
190	20275	865	1
190	21322	910	1
190	23092	985	1
190	23922	1020	1
190	24503	1045	1
190	27869	1190	1
190	29372	1255	1
190	29525	1260	1
190	40571	1735	1
190	45410	1940	1
190	45880	1960	1
190	49715	2125	1
191	20850	890	1
191	23301	995	1
191	23559	1005	1
191	25181	1075	1
191	29527	1260	1
191	29739	1270	1
191	30104	1285	1
191	33114	1415	1
191	34970	1495	1
191	35123	1500	1
191	41976	1795	1
191	42337	1810	1
191	45982	1965	1
191	46555	1990	1
191	47120	2015	1
191	59392	2540	1
191	61834	2645	1
191	63904	2735	1
191	67169	2875	1
192	20850	890	886
192	23301	995	987
192	23559	1005	993
192	25181	1075	1059
192	29527	1260	1240
192	29739	1270	378
192	30104	1285	289
192	33114	1415	407
192	34970	1495	419
192	35123	1500	236
192	41976	1795	523
192	42337	1810	522
192	45982	1965	549
192	46555	1990	494
192	47120	2015	511
192	59392	2540	744
192	61834	2645	833
192	63904	2735	767
192	67169	2875	883
193	20850	890	1
193	23301	995	1
193	23559	1005	1
193	25181	1075	1
193	29527	1260	1
193	29739	1270	1
193	30104	1285	1
193	33114	1415	1
193	34970	1495	1
193	35123	1500	1
193	41976	1795	1
193	42337	1810	1
193	45982	1965	1
193	46555	1990	1
193	47120	2015	1
193	59392	2540	1
193	61834	2645	1
193	63904	2735	1
193	67169	2875	1
194	23196	990	1
194	24865	1060	1
194	28130	1200	1
194	30102	1285	1
194	30461	1300	1
194	39169	1675	1
194	40366	1725	1
195	23196	990	986
195	24865	1060	1052
195	28130	1200	1188
195	30102	1285	1269
195	30461	1300	1280
195	39169	1675	683
195	40366	1725	661
196	23196	990	1
196	24865	1060	1
196	28130	1200	1
196	30102	1285	1
196	30461	1300	1
196	39169	1675	1
196	40366	1725	1
197	23924	1020	1
197	25337	1080	1
197	26269	1120	1
197	31871	1360	1
197	36372	1555	1
197	37774	1615	1
198	23924	1020	1016
198	25337	1080	1072
198	26269	1120	1108
198	31871	1360	1344
198	36372	1555	1535
198	37774	1615	591
199	23924	1020	1
199	25337	1080	1
199	26269	1120	1
199	31871	1360	1
199	36372	1555	1
199	37774	1615	1
200	25904	1105	1
200	26114	1115	1
200	29161	1245	1
200	29265	1250	1
200	31502	1345	1
200	47743	2040	1
201	25904	1105	1101
201	26114	1115	1107
201	29161	1245	1233
201	29265	1250	1234
201	31502	1345	1325
201	47743	2040	932
202	25904	1105	1
202	26114	1115	1
202	29161	1245	1
202	29265	1250	1
202	31502	1345	1
202	47743	2040	1
203	31136	1330	1
203	31612	1350	1
203	51681	2210	1
203	55054	2355	1
203	69655	2980	1
203	70434	3015	1
203	70587	3020	1
203	77709	3325	1
203	78073	3340	1
203	78855	3375	1
204	31136	1330	1326
204	31612	1350	1342
204	51681	2210	2198
204	55054	2355	2339
204	69655	2980	2960
204	70434	3015	1683
204	70587	3020	1668
204	77709	3325	1113
204	78073	3340	984
204	78855	3375	391
205	31136	1330	1
205	31612	1350	1
205	51681	2210	1
205	55054	2355	1
205	69655	2980	1
205	70434	3015	1
205	70587	3020	1
205	77709	3325	1
205	78073	3340	1
205	78855	3375	1
206	37561	1605	1
206	42702	1825	1
206	43741	1870	1
206	50394	2155	1
206	52725	2255	1
206	52879	2260	1
206	54279	2320	1
206	58567	2505	1
207	37561	1605	1601
207	42702	1825	1817
207	43741	1870	1858
207	50394	2155	2139
207	52725	2255	2235
207	52879	2260	652
207	54279	2320	492
207	58567	2505	633
208	37561	1605	1
208	42702	1825	1
208	43741	1870	1
208	50394	2155	1
208	52725	2255	1
208	52879	2260	1
208	54279	2320	1
208	58567	2505	1
209	44680	1910	1
209	44783	1915	1
209	45984	1965	1
209	47845	2045	1
209	48522	2075	1
209	49355	2110	1
209	49456	2115	1
209	49820	2130	1
209	50082	2140	1
209	57372	2455	1
209	59966	2565	1
209	60327	2580	1
209	61006	2610	1
209	61470	2630	1
209	61574	2635	1
209	63225	2705	1
209	64162	2745	1
209	64523	2760	1
209	66024	2825	1
209	66593	2850	1
209	67534	2890	1
209	68927	2950	1
209	79115	3385	1
209	80048	3425	1
209	80981	3465	1
210	44680	1910	1906
210	44783	1915	1907
210	45984	1965	1953
210	47845	2045	2029
210	48522	2075	2055
210	49355	2110	198
210	49456	2115	199
210	49820	2130	162
210	50082	2140	92
210	57372	2455	379
210	59966	2565	453
210	60327	2580	464
210	61006	2610	478
210	61470	2630	486
210	61574	2635	179
210	63225	2705	137
210	64162	2745	161
210	64523	2760	148
210	66024	2825	193
210	66593	2850	214
210	67534	2890	182
210	68927	2950	202
210	79115	3385	621
210	80048	3425	597
210	80981	3465	613
211	44680	1910	1
211	44783	1915	1
211	45984	1965	1
211	47845	2045	1
211	48522	2075	1
211	49355	2110	1
211	49456	2115	1
211	49820	2130	1
211	50082	2140	1
211	57372	2455	1
211	59966	2565	1
211	60327	2580	1
211	61006	2610	1
211	61470	2630	1
211	61574	2635	1
211	63225	2705	1
211	64162	2745	1
211	64523	2760	1
211	66024	2825	1
211	66593	2850	1
211	67534	2890	1
211	68927	2950	1
211	79115	3385	1
211	80048	3425	1
211	80981	3465	1
212	53087	2270	1
212	56342	2410	1
212	58308	2495	1
212	59135	2530	1
212	59239	2535	1
213	53087	2270	2266
213	56342	2410	2402
213	58308	2495	2483
213	59135	2530	2514
213	59239	2535	2515
214	53087	2270	1
214	56342	2410	1
214	58308	2495	1
214	59135	2530	1
214	59239	2535	1
215	57529	2460	1
215	60171	2575	1
215	60325	2580	1
215	60640	2595	1
215	60794	2600	1
215	60899	2605	1
215	61261	2620	1
215	63119	2700	1
215	63330	2710	1
215	66856	2860	1
215	66959	2865	1
215	69188	2960	1
215	73499	3145	1
215	74329	3180	1
215	74537	3190	1
215	74797	3200	1
215	75007	3210	1
215	78853	3375	1
215	80620	3450	1
215	82276	3520	1
215	82843	3545	1
216	57529	2460	2456
216	60171	2575	2567
216	60325	2580	2568
216	60640	2595	2579
216	60794	2600	2580
216	60899	2605	141
216	61261	2620	44
216	63119	2700	116
216	63330	2710	114
216	66856	2860	256
216	66959	2865	257
216	69188	2960	336
216	73499	3145	441
216	74329	3180	468
216	74537	3190	326
216	74797	3200	332
216	75007	3210	246
216	78853	3375	227
216	80620	3450	266
216	82276	3520	328
216	82843	3545	341
217	57529	2460	1
217	60171	2575	1
217	60325	2580	1
217	60640	2595	1
217	60794	2600	1
217	60899	2605	1
217	61261	2620	1
217	63119	2700	1
217	63330	2710	1
217	66856	2860	1
217	66959	2865	1
217	69188	2960	1
217	73499	3145	1
217	74329	3180	1
217	74537	3190	1
217	74797	3200	1
217	75007	3210	1
217	78853	3375	1
217	80620	3450	1
217	82276	3520	1
217	82843	3545	1
218	78280	3350	1
218	79326	3395	1
219	78280	3350	3346
219	79326	3395	3387
220	78280	3350	1
220	79326	3395	1

