version 2
run FirstVerification-0-20201214-14:14:39-8070
attr configname FirstVerification
attr datetime 20201214-14:14:39
attr experiment FirstVerification
attr inifile omnetpp.ini
attr iterationvars ""
attr iterationvarsf ""
attr measurement ""
attr network slottedNetwork
attr processid 8070
attr repetition 0
attr replication #0
attr resultdir results
attr runnumber 0
attr seedset 0
param **.numTransmitters 1
param **.numChannels 1
param **.bufferSize 5
param **.sendProbability 1
param **.expMean 10s
param **.timeSlotSize 5s
param **.thresh 20s
param **.deterministicInterarrivalTime true
param **.numTransmitters 1
param **.numChannels 1
param **.bufferSize 5
param **.sendProbability 1
param **.expMean 5s
param **.timeSlotSize 5s
param **.thresh 20s
param **.deterministicInterarrivalTime false

vector 0 slottedNetwork.ch throughput:vector ETV
attr source throughputSignal
0	1	5	0
vector 1 slottedNetwork.transmitters[0] numPacketCreated:vector ETV
attr source numPacketCreatedSignal
1	3	10	1
0	4	10	0
0	7	15	1
vector 2 slottedNetwork.receivers[0] numPacketReceived:vector ETV
attr source numPacketReceivedSignal
vector 3 slottedNetwork.receivers[0] responseTime:vector ETV
attr source responseTimeSignal
vector 4 slottedNetwork.receivers[0] threshold:vector ETV
attr source thresholdSignal
2	9	15	1
3	9	15	5
4	9	15	0
0	11	20	0
0	14	25	1
0	18	30	0
0	21	35	1
0	25	40	0
0	28	45	1
0	32	50	0
0	35	55	1
0	39	60	0
0	42	65	1
0	46	70	0
0	49	75	1
0	53	80	0
0	56	85	1
0	60	90	0
0	63	95	1
0	67	100	0
0	70	105	1
0	74	110	0
0	77	115	1
0	81	120	0
0	84	125	1
0	88	130	0
0	91	135	1
0	95	140	0
0	98	145	1
0	102	150	0
0	105	155	1
0	109	160	0
0	112	165	1
0	116	170	0
0	119	175	1
0	123	180	0
0	126	185	1
0	130	190	0
0	133	195	1
0	137	200	0
0	140	205	1
0	144	210	0
0	147	215	1
0	151	220	0
0	154	225	1
0	158	230	0
0	161	235	1
0	165	240	0
0	168	245	1
0	172	250	0
0	175	255	1
0	179	260	0
0	182	265	1
0	186	270	0
0	189	275	1
0	193	280	0
0	196	285	1
0	200	290	0
0	203	295	1
0	207	300	0
0	210	305	1
0	214	310	0
0	217	315	1
0	221	320	0
0	224	325	1
0	228	330	0
0	231	335	1
0	235	340	0
0	238	345	1
0	242	350	0
0	245	355	1
0	249	360	0
0	252	365	1
0	256	370	0
0	259	375	1
0	263	380	0
0	266	385	1
0	270	390	0
0	273	395	1
0	277	400	0
0	280	405	1
0	284	410	0
0	287	415	1
0	291	420	0
0	294	425	1
0	298	430	0
0	301	435	1
0	305	440	0
0	308	445	1
0	312	450	0
0	315	455	1
0	319	460	0
0	322	465	1
0	326	470	0
0	329	475	1
0	333	480	0
0	336	485	1
0	340	490	0
0	343	495	1
0	347	500	0
0	350	505	1
0	354	510	0
0	357	515	1
0	361	520	0
0	364	525	1
0	368	530	0
0	371	535	1
0	375	540	0
0	378	545	1
0	382	550	0
0	385	555	1
0	389	560	0
0	392	565	1
0	396	570	0
0	399	575	1
0	403	580	0
0	406	585	1
0	410	590	0
0	413	595	1
0	417	600	0
0	420	605	1
0	424	610	0
0	427	615	1
0	431	620	0
0	434	625	1
0	438	630	0
0	441	635	1
0	445	640	0
0	448	645	1
0	452	650	0
0	455	655	1
0	459	660	0
0	462	665	1
0	466	670	0
0	469	675	1
0	473	680	0
0	476	685	1
0	480	690	0
0	483	695	1
0	487	700	0
0	490	705	1
0	494	710	0
0	497	715	1
0	501	720	0
0	504	725	1
0	508	730	0
0	511	735	1
0	515	740	0
0	518	745	1
0	522	750	0
0	525	755	1
0	529	760	0
0	532	765	1
0	536	770	0
0	539	775	1
0	543	780	0
0	546	785	1
0	550	790	0
0	553	795	1
0	557	800	0
0	560	805	1
0	564	810	0
0	567	815	1
0	571	820	0
0	574	825	1
0	578	830	0
0	581	835	1
0	585	840	0
0	588	845	1
0	592	850	0
0	595	855	1
0	599	860	0
0	602	865	1
0	606	870	0
0	609	875	1
0	613	880	0
0	616	885	1
0	620	890	0
0	623	895	1
0	627	900	0
0	630	905	1
0	634	910	0
0	637	915	1
0	641	920	0
0	644	925	1
0	648	930	0
0	651	935	1
0	655	940	0
0	658	945	1
0	662	950	0
0	665	955	1
0	669	960	0
0	672	965	1
0	676	970	0
0	679	975	1
0	683	980	0
0	686	985	1
0	690	990	0
0	693	995	1
0	697	1000	0
0	700	1005	1
0	704	1010	0
0	707	1015	1
0	711	1020	0
0	714	1025	1
0	718	1030	0
0	721	1035	1
0	725	1040	0
0	728	1045	1
0	732	1050	0
0	735	1055	1
0	739	1060	0
0	742	1065	1
0	746	1070	0
0	749	1075	1
0	753	1080	0
0	756	1085	1
0	760	1090	0
0	763	1095	1
0	767	1100	0
0	770	1105	1
0	774	1110	0
0	777	1115	1
0	781	1120	0
0	784	1125	1
0	788	1130	0
0	791	1135	1
0	795	1140	0
0	798	1145	1
0	802	1150	0
0	805	1155	1
0	809	1160	0
0	812	1165	1
0	816	1170	0
0	819	1175	1
0	823	1180	0
0	826	1185	1
0	830	1190	0
0	833	1195	1
0	837	1200	0
0	840	1205	1
0	844	1210	0
0	847	1215	1
0	851	1220	0
0	854	1225	1
0	858	1230	0
0	861	1235	1
0	865	1240	0
0	868	1245	1
0	872	1250	0
0	875	1255	1
0	879	1260	0
0	882	1265	1
0	886	1270	0
0	889	1275	1
0	893	1280	0
0	896	1285	1
0	900	1290	0
0	903	1295	1
0	907	1300	0
0	910	1305	1
0	914	1310	0
0	917	1315	1
0	921	1320	0
0	924	1325	1
0	928	1330	0
0	931	1335	1
0	935	1340	0
0	938	1345	1
0	942	1350	0
0	945	1355	1
0	949	1360	0
0	952	1365	1
0	956	1370	0
0	959	1375	1
0	963	1380	0
0	966	1385	1
0	970	1390	0
0	973	1395	1
0	977	1400	0
0	980	1405	1
0	984	1410	0
0	987	1415	1
0	991	1420	0
0	994	1425	1
0	998	1430	0
0	1001	1435	1
0	1005	1440	0
0	1008	1445	1
0	1012	1450	0
0	1015	1455	1
0	1019	1460	0
0	1022	1465	1
0	1026	1470	0
0	1029	1475	1
0	1033	1480	0
0	1036	1485	1
0	1040	1490	0
0	1043	1495	1
0	1047	1500	0
0	1050	1505	1
0	1054	1510	0
0	1057	1515	1
0	1061	1520	0
0	1064	1525	1
0	1068	1530	0
0	1071	1535	1
0	1075	1540	0
0	1078	1545	1
0	1082	1550	0
0	1085	1555	1
0	1089	1560	0
0	1092	1565	1
0	1096	1570	0
0	1099	1575	1
0	1103	1580	0
0	1106	1585	1
0	1110	1590	0
0	1113	1595	1
0	1117	1600	0
0	1120	1605	1
0	1124	1610	0
0	1127	1615	1
0	1131	1620	0
0	1134	1625	1
0	1138	1630	0
0	1141	1635	1
0	1145	1640	0
0	1148	1645	1
0	1152	1650	0
0	1155	1655	1
0	1159	1660	0
0	1162	1665	1
0	1166	1670	0
0	1169	1675	1
0	1173	1680	0
0	1176	1685	1
0	1180	1690	0
0	1183	1695	1
0	1187	1700	0
0	1190	1705	1
0	1194	1710	0
0	1197	1715	1
0	1201	1720	0
0	1204	1725	1
0	1208	1730	0
0	1211	1735	1
0	1215	1740	0
0	1218	1745	1
0	1222	1750	0
0	1225	1755	1
0	1229	1760	0
0	1232	1765	1
0	1236	1770	0
0	1239	1775	1
0	1243	1780	0
0	1246	1785	1
0	1250	1790	0
0	1253	1795	1
0	1257	1800	0
0	1260	1805	1
0	1264	1810	0
0	1267	1815	1
0	1271	1820	0
0	1274	1825	1
0	1278	1830	0
0	1281	1835	1
0	1285	1840	0
0	1288	1845	1
0	1292	1850	0
0	1295	1855	1
0	1299	1860	0
0	1302	1865	1
0	1306	1870	0
0	1309	1875	1
0	1313	1880	0
0	1316	1885	1
0	1320	1890	0
0	1323	1895	1
0	1327	1900	0
0	1330	1905	1
0	1334	1910	0
0	1337	1915	1
0	1341	1920	0
0	1344	1925	1
0	1348	1930	0
0	1351	1935	1
0	1355	1940	0
0	1358	1945	1
0	1362	1950	0
0	1365	1955	1
0	1369	1960	0
0	1372	1965	1
0	1376	1970	0
0	1379	1975	1
0	1383	1980	0
0	1386	1985	1
0	1390	1990	0
0	1393	1995	1
0	1397	2000	0
0	1400	2005	1
0	1404	2010	0
0	1407	2015	1
0	1411	2020	0
0	1414	2025	1
0	1418	2030	0
0	1421	2035	1
0	1425	2040	0
0	1428	2045	1
0	1432	2050	0
0	1435	2055	1
0	1439	2060	0
0	1442	2065	1
0	1446	2070	0
0	1449	2075	1
0	1453	2080	0
0	1456	2085	1
0	1460	2090	0
0	1463	2095	1
0	1467	2100	0
0	1470	2105	1
0	1474	2110	0
0	1477	2115	1
0	1481	2120	0
0	1484	2125	1
0	1488	2130	0
0	1491	2135	1
0	1495	2140	0
0	1498	2145	1
0	1502	2150	0
0	1505	2155	1
0	1509	2160	0
0	1512	2165	1
0	1516	2170	0
0	1519	2175	1
0	1523	2180	0
0	1526	2185	1
0	1530	2190	0
0	1533	2195	1
0	1537	2200	0
0	1540	2205	1
0	1544	2210	0
0	1547	2215	1
0	1551	2220	0
0	1554	2225	1
0	1558	2230	0
0	1561	2235	1
0	1565	2240	0
0	1568	2245	1
0	1572	2250	0
0	1575	2255	1
0	1579	2260	0
0	1582	2265	1
0	1586	2270	0
0	1589	2275	1
0	1593	2280	0
0	1596	2285	1
0	1600	2290	0
0	1603	2295	1
0	1607	2300	0
0	1610	2305	1
0	1614	2310	0
0	1617	2315	1
0	1621	2320	0
0	1624	2325	1
0	1628	2330	0
0	1631	2335	1
0	1635	2340	0
0	1638	2345	1
0	1642	2350	0
0	1645	2355	1
0	1649	2360	0
0	1652	2365	1
0	1656	2370	0
0	1659	2375	1
0	1663	2380	0
0	1666	2385	1
0	1670	2390	0
0	1673	2395	1
0	1677	2400	0
0	1680	2405	1
0	1684	2410	0
0	1687	2415	1
0	1691	2420	0
0	1694	2425	1
0	1698	2430	0
0	1701	2435	1
0	1705	2440	0
0	1708	2445	1
0	1712	2450	0
0	1715	2455	1
0	1719	2460	0
0	1722	2465	1
0	1726	2470	0
0	1729	2475	1
0	1733	2480	0
0	1736	2485	1
0	1740	2490	0
0	1743	2495	1
0	1747	2500	0
0	1750	2505	1
0	1754	2510	0
0	1757	2515	1
0	1761	2520	0
0	1764	2525	1
0	1768	2530	0
0	1771	2535	1
0	1775	2540	0
0	1778	2545	1
0	1782	2550	0
0	1785	2555	1
0	1789	2560	0
0	1792	2565	1
0	1796	2570	0
0	1799	2575	1
0	1803	2580	0
0	1806	2585	1
0	1810	2590	0
0	1813	2595	1
0	1817	2600	0
0	1820	2605	1
0	1824	2610	0
0	1827	2615	1
0	1831	2620	0
0	1834	2625	1
0	1838	2630	0
0	1841	2635	1
0	1845	2640	0
0	1848	2645	1
0	1852	2650	0
0	1855	2655	1
0	1859	2660	0
0	1862	2665	1
0	1866	2670	0
0	1869	2675	1
0	1873	2680	0
0	1876	2685	1
0	1880	2690	0
0	1883	2695	1
0	1887	2700	0
0	1890	2705	1
0	1894	2710	0
0	1897	2715	1
0	1901	2720	0
0	1904	2725	1
0	1908	2730	0
0	1911	2735	1
0	1915	2740	0
0	1918	2745	1
0	1922	2750	0
0	1925	2755	1
0	1929	2760	0
0	1932	2765	1
0	1936	2770	0
0	1939	2775	1
0	1943	2780	0
0	1946	2785	1
0	1950	2790	0
0	1953	2795	1
0	1957	2800	0
0	1960	2805	1
0	1964	2810	0
0	1967	2815	1
0	1971	2820	0
0	1974	2825	1
0	1978	2830	0
0	1981	2835	1
0	1985	2840	0
0	1988	2845	1
0	1992	2850	0
0	1995	2855	1
0	1999	2860	0
0	2002	2865	1
0	2006	2870	0
0	2009	2875	1
0	2013	2880	0
0	2016	2885	1
0	2020	2890	0
0	2023	2895	1
0	2027	2900	0
0	2030	2905	1
0	2034	2910	0
0	2037	2915	1
0	2041	2920	0
0	2044	2925	1
0	2048	2930	0
0	2051	2935	1
0	2055	2940	0
0	2058	2945	1
0	2062	2950	0
0	2065	2955	1
0	2069	2960	0
0	2072	2965	1
0	2076	2970	0
0	2079	2975	1
0	2083	2980	0
0	2086	2985	1
0	2090	2990	0
0	2093	2995	1
0	2097	3000	0
0	2100	3005	1
0	2104	3010	0
0	2107	3015	1
0	2111	3020	0
0	2114	3025	1
0	2118	3030	0
0	2121	3035	1
0	2125	3040	0
0	2128	3045	1
0	2132	3050	0
0	2135	3055	1
0	2139	3060	0
0	2142	3065	1
0	2146	3070	0
0	2149	3075	1
0	2153	3080	0
0	2156	3085	1
0	2160	3090	0
0	2163	3095	1
0	2167	3100	0
0	2170	3105	1
0	2174	3110	0
0	2177	3115	1
0	2181	3120	0
0	2184	3125	1
0	2188	3130	0
0	2191	3135	1
0	2195	3140	0
0	2198	3145	1
0	2202	3150	0
0	2205	3155	1
0	2209	3160	0
0	2212	3165	1
0	2216	3170	0
0	2219	3175	1
0	2223	3180	0
0	2226	3185	1
0	2230	3190	0
0	2233	3195	1
0	2237	3200	0
0	2240	3205	1
0	2244	3210	0
0	2247	3215	1
0	2251	3220	0
0	2254	3225	1
0	2258	3230	0
0	2261	3235	1
0	2265	3240	0
0	2268	3245	1
0	2272	3250	0
0	2275	3255	1
0	2279	3260	0
0	2282	3265	1
0	2286	3270	0
0	2289	3275	1
0	2293	3280	0
0	2296	3285	1
0	2300	3290	0
0	2303	3295	1
0	2307	3300	0
0	2310	3305	1
0	2314	3310	0
0	2317	3315	1
0	2321	3320	0
0	2324	3325	1
0	2328	3330	0
0	2331	3335	1
0	2335	3340	0
0	2338	3345	1
0	2342	3350	0
0	2345	3355	1
0	2349	3360	0
0	2352	3365	1
0	2356	3370	0
0	2359	3375	1
0	2363	3380	0
0	2366	3385	1
0	2370	3390	0
0	2373	3395	1
0	2377	3400	0
0	2380	3405	1
0	2384	3410	0
0	2387	3415	1
0	2391	3420	0
0	2394	3425	1
0	2398	3430	0
0	2401	3435	1
0	2405	3440	0
0	2408	3445	1
0	2412	3450	0
0	2415	3455	1
0	2419	3460	0
0	2422	3465	1
0	2426	3470	0
0	2429	3475	1
0	2433	3480	0
0	2436	3485	1
0	2440	3490	0
0	2443	3495	1
0	2447	3500	0
0	2450	3505	1
0	2454	3510	0
0	2457	3515	1
0	2461	3520	0
0	2464	3525	1
0	2468	3530	0
0	2471	3535	1
0	2475	3540	0
0	2478	3545	1
0	2482	3550	0
0	2485	3555	1
0	2489	3560	0
0	2492	3565	1
0	2496	3570	0
0	2499	3575	1
0	2503	3580	0
0	2506	3585	1
0	2510	3590	0
0	2513	3595	1
0	2517	3600	0
1	10	20	1
1	17	30	1
1	24	40	1
1	31	50	1
1	38	60	1
1	45	70	1
1	52	80	1
1	59	90	1
1	66	100	1
1	73	110	1
1	80	120	1
1	87	130	1
1	94	140	1
1	101	150	1
1	108	160	1
1	115	170	1
1	122	180	1
1	129	190	1
1	136	200	1
1	143	210	1
1	150	220	1
1	157	230	1
1	164	240	1
1	171	250	1
1	178	260	1
1	185	270	1
1	192	280	1
1	199	290	1
1	206	300	1
1	213	310	1
1	220	320	1
1	227	330	1
1	234	340	1
1	241	350	1
1	248	360	1
1	255	370	1
1	262	380	1
1	269	390	1
1	276	400	1
1	283	410	1
1	290	420	1
1	297	430	1
1	304	440	1
1	311	450	1
1	318	460	1
1	325	470	1
1	332	480	1
1	339	490	1
1	346	500	1
1	353	510	1
1	360	520	1
1	367	530	1
1	374	540	1
1	381	550	1
1	388	560	1
1	395	570	1
1	402	580	1
1	409	590	1
1	416	600	1
1	423	610	1
1	430	620	1
1	437	630	1
1	444	640	1
1	451	650	1
1	458	660	1
1	465	670	1
1	472	680	1
1	479	690	1
1	486	700	1
1	493	710	1
1	500	720	1
1	507	730	1
1	514	740	1
1	521	750	1
1	528	760	1
1	535	770	1
1	542	780	1
1	549	790	1
1	556	800	1
1	563	810	1
1	570	820	1
1	577	830	1
1	584	840	1
1	591	850	1
1	598	860	1
1	605	870	1
1	612	880	1
1	619	890	1
1	626	900	1
1	633	910	1
1	640	920	1
1	647	930	1
1	654	940	1
1	661	950	1
1	668	960	1
1	675	970	1
1	682	980	1
1	689	990	1
1	696	1000	1
1	703	1010	1
1	710	1020	1
1	717	1030	1
1	724	1040	1
1	731	1050	1
1	738	1060	1
1	745	1070	1
1	752	1080	1
1	759	1090	1
1	766	1100	1
1	773	1110	1
1	780	1120	1
1	787	1130	1
1	794	1140	1
1	801	1150	1
1	808	1160	1
1	815	1170	1
1	822	1180	1
1	829	1190	1
1	836	1200	1
1	843	1210	1
1	850	1220	1
1	857	1230	1
1	864	1240	1
1	871	1250	1
1	878	1260	1
1	885	1270	1
1	892	1280	1
1	899	1290	1
1	906	1300	1
1	913	1310	1
1	920	1320	1
1	927	1330	1
1	934	1340	1
1	941	1350	1
1	948	1360	1
1	955	1370	1
1	962	1380	1
1	969	1390	1
1	976	1400	1
1	983	1410	1
1	990	1420	1
1	997	1430	1
1	1004	1440	1
1	1011	1450	1
1	1018	1460	1
1	1025	1470	1
1	1032	1480	1
1	1039	1490	1
1	1046	1500	1
1	1053	1510	1
1	1060	1520	1
1	1067	1530	1
1	1074	1540	1
1	1081	1550	1
1	1088	1560	1
1	1095	1570	1
1	1102	1580	1
1	1109	1590	1
1	1116	1600	1
1	1123	1610	1
1	1130	1620	1
1	1137	1630	1
1	1144	1640	1
1	1151	1650	1
1	1158	1660	1
1	1165	1670	1
1	1172	1680	1
1	1179	1690	1
1	1186	1700	1
1	1193	1710	1
1	1200	1720	1
1	1207	1730	1
1	1214	1740	1
1	1221	1750	1
1	1228	1760	1
1	1235	1770	1
1	1242	1780	1
1	1249	1790	1
1	1256	1800	1
1	1263	1810	1
1	1270	1820	1
1	1277	1830	1
1	1284	1840	1
1	1291	1850	1
1	1298	1860	1
1	1305	1870	1
1	1312	1880	1
1	1319	1890	1
1	1326	1900	1
1	1333	1910	1
1	1340	1920	1
1	1347	1930	1
1	1354	1940	1
1	1361	1950	1
1	1368	1960	1
1	1375	1970	1
1	1382	1980	1
1	1389	1990	1
1	1396	2000	1
1	1403	2010	1
1	1410	2020	1
1	1417	2030	1
1	1424	2040	1
1	1431	2050	1
1	1438	2060	1
1	1445	2070	1
1	1452	2080	1
1	1459	2090	1
1	1466	2100	1
1	1473	2110	1
1	1480	2120	1
1	1487	2130	1
1	1494	2140	1
1	1501	2150	1
1	1508	2160	1
1	1515	2170	1
1	1522	2180	1
1	1529	2190	1
1	1536	2200	1
1	1543	2210	1
1	1550	2220	1
1	1557	2230	1
1	1564	2240	1
1	1571	2250	1
1	1578	2260	1
1	1585	2270	1
1	1592	2280	1
1	1599	2290	1
1	1606	2300	1
1	1613	2310	1
1	1620	2320	1
1	1627	2330	1
1	1634	2340	1
1	1641	2350	1
1	1648	2360	1
1	1655	2370	1
1	1662	2380	1
1	1669	2390	1
1	1676	2400	1
1	1683	2410	1
1	1690	2420	1
1	1697	2430	1
1	1704	2440	1
1	1711	2450	1
1	1718	2460	1
1	1725	2470	1
1	1732	2480	1
1	1739	2490	1
1	1746	2500	1
1	1753	2510	1
1	1760	2520	1
1	1767	2530	1
1	1774	2540	1
1	1781	2550	1
1	1788	2560	1
1	1795	2570	1
1	1802	2580	1
1	1809	2590	1
1	1816	2600	1
1	1823	2610	1
1	1830	2620	1
1	1837	2630	1
1	1844	2640	1
1	1851	2650	1
1	1858	2660	1
1	1865	2670	1
1	1872	2680	1
1	1879	2690	1
1	1886	2700	1
1	1893	2710	1
1	1900	2720	1
1	1907	2730	1
1	1914	2740	1
1	1921	2750	1
1	1928	2760	1
1	1935	2770	1
1	1942	2780	1
1	1949	2790	1
1	1956	2800	1
1	1963	2810	1
1	1970	2820	1
1	1977	2830	1
1	1984	2840	1
1	1991	2850	1
1	1998	2860	1
1	2005	2870	1
1	2012	2880	1
1	2019	2890	1
1	2026	2900	1
1	2033	2910	1
1	2040	2920	1
1	2047	2930	1
1	2054	2940	1
1	2061	2950	1
1	2068	2960	1
1	2075	2970	1
1	2082	2980	1
1	2089	2990	1
1	2096	3000	1
1	2103	3010	1
1	2110	3020	1
1	2117	3030	1
1	2124	3040	1
1	2131	3050	1
1	2138	3060	1
1	2145	3070	1
1	2152	3080	1
1	2159	3090	1
1	2166	3100	1
1	2173	3110	1
1	2180	3120	1
1	2187	3130	1
1	2194	3140	1
1	2201	3150	1
1	2208	3160	1
1	2215	3170	1
1	2222	3180	1
1	2229	3190	1
1	2236	3200	1
1	2243	3210	1
1	2250	3220	1
1	2257	3230	1
1	2264	3240	1
1	2271	3250	1
1	2278	3260	1
1	2285	3270	1
1	2292	3280	1
1	2299	3290	1
1	2306	3300	1
1	2313	3310	1
1	2320	3320	1
1	2327	3330	1
1	2334	3340	1
1	2341	3350	1
1	2348	3360	1
1	2355	3370	1
1	2362	3380	1
1	2369	3390	1
1	2376	3400	1
1	2383	3410	1
1	2390	3420	1
1	2397	3430	1
1	2404	3440	1
1	2411	3450	1
1	2418	3460	1
1	2425	3470	1
1	2432	3480	1
1	2439	3490	1
1	2446	3500	1
1	2453	3510	1
1	2460	3520	1
1	2467	3530	1
1	2474	3540	1
1	2481	3550	1
1	2488	3560	1
1	2495	3570	1
1	2502	3580	1
1	2509	3590	1
1	2516	3600	1
2	16	25	1
2	23	35	1
2	30	45	1
2	37	55	1
2	44	65	1
2	51	75	1
2	58	85	1
2	65	95	1
2	72	105	1
2	79	115	1
2	86	125	1
2	93	135	1
2	100	145	1
2	107	155	1
2	114	165	1
2	121	175	1
2	128	185	1
2	135	195	1
2	142	205	1
2	149	215	1
2	156	225	1
2	163	235	1
2	170	245	1
2	177	255	1
2	184	265	1
2	191	275	1
2	198	285	1
2	205	295	1
2	212	305	1
2	219	315	1
2	226	325	1
2	233	335	1
2	240	345	1
2	247	355	1
2	254	365	1
2	261	375	1
2	268	385	1
2	275	395	1
2	282	405	1
2	289	415	1
2	296	425	1
2	303	435	1
2	310	445	1
2	317	455	1
2	324	465	1
2	331	475	1
2	338	485	1
2	345	495	1
2	352	505	1
2	359	515	1
2	366	525	1
2	373	535	1
2	380	545	1
2	387	555	1
2	394	565	1
2	401	575	1
2	408	585	1
2	415	595	1
2	422	605	1
2	429	615	1
2	436	625	1
2	443	635	1
2	450	645	1
2	457	655	1
2	464	665	1
2	471	675	1
2	478	685	1
2	485	695	1
2	492	705	1
2	499	715	1
2	506	725	1
2	513	735	1
2	520	745	1
2	527	755	1
2	534	765	1
2	541	775	1
2	548	785	1
2	555	795	1
2	562	805	1
2	569	815	1
2	576	825	1
2	583	835	1
2	590	845	1
2	597	855	1
2	604	865	1
2	611	875	1
2	618	885	1
2	625	895	1
2	632	905	1
2	639	915	1
2	646	925	1
2	653	935	1
2	660	945	1
2	667	955	1
2	674	965	1
2	681	975	1
2	688	985	1
2	695	995	1
2	702	1005	1
2	709	1015	1
2	716	1025	1
2	723	1035	1
2	730	1045	1
2	737	1055	1
2	744	1065	1
2	751	1075	1
2	758	1085	1
2	765	1095	1
2	772	1105	1
2	779	1115	1
2	786	1125	1
2	793	1135	1
2	800	1145	1
2	807	1155	1
2	814	1165	1
2	821	1175	1
2	828	1185	1
2	835	1195	1
2	842	1205	1
2	849	1215	1
2	856	1225	1
2	863	1235	1
2	870	1245	1
2	877	1255	1
2	884	1265	1
2	891	1275	1
2	898	1285	1
2	905	1295	1
2	912	1305	1
2	919	1315	1
2	926	1325	1
2	933	1335	1
2	940	1345	1
2	947	1355	1
2	954	1365	1
2	961	1375	1
2	968	1385	1
2	975	1395	1
2	982	1405	1
2	989	1415	1
2	996	1425	1
2	1003	1435	1
2	1010	1445	1
2	1017	1455	1
2	1024	1465	1
2	1031	1475	1
2	1038	1485	1
2	1045	1495	1
2	1052	1505	1
2	1059	1515	1
2	1066	1525	1
2	1073	1535	1
2	1080	1545	1
2	1087	1555	1
2	1094	1565	1
2	1101	1575	1
2	1108	1585	1
2	1115	1595	1
2	1122	1605	1
2	1129	1615	1
2	1136	1625	1
2	1143	1635	1
2	1150	1645	1
2	1157	1655	1
2	1164	1665	1
2	1171	1675	1
2	1178	1685	1
2	1185	1695	1
2	1192	1705	1
2	1199	1715	1
2	1206	1725	1
2	1213	1735	1
2	1220	1745	1
2	1227	1755	1
2	1234	1765	1
2	1241	1775	1
2	1248	1785	1
2	1255	1795	1
2	1262	1805	1
2	1269	1815	1
2	1276	1825	1
2	1283	1835	1
2	1290	1845	1
2	1297	1855	1
2	1304	1865	1
2	1311	1875	1
2	1318	1885	1
2	1325	1895	1
2	1332	1905	1
2	1339	1915	1
2	1346	1925	1
2	1353	1935	1
2	1360	1945	1
2	1367	1955	1
2	1374	1965	1
2	1381	1975	1
2	1388	1985	1
2	1395	1995	1
2	1402	2005	1
2	1409	2015	1
2	1416	2025	1
2	1423	2035	1
2	1430	2045	1
2	1437	2055	1
2	1444	2065	1
2	1451	2075	1
2	1458	2085	1
2	1465	2095	1
2	1472	2105	1
2	1479	2115	1
2	1486	2125	1
2	1493	2135	1
2	1500	2145	1
2	1507	2155	1
2	1514	2165	1
2	1521	2175	1
2	1528	2185	1
2	1535	2195	1
2	1542	2205	1
2	1549	2215	1
2	1556	2225	1
2	1563	2235	1
2	1570	2245	1
2	1577	2255	1
2	1584	2265	1
2	1591	2275	1
2	1598	2285	1
2	1605	2295	1
2	1612	2305	1
2	1619	2315	1
2	1626	2325	1
2	1633	2335	1
2	1640	2345	1
2	1647	2355	1
2	1654	2365	1
2	1661	2375	1
2	1668	2385	1
2	1675	2395	1
2	1682	2405	1
2	1689	2415	1
2	1696	2425	1
2	1703	2435	1
2	1710	2445	1
2	1717	2455	1
2	1724	2465	1
2	1731	2475	1
2	1738	2485	1
2	1745	2495	1
2	1752	2505	1
2	1759	2515	1
2	1766	2525	1
2	1773	2535	1
2	1780	2545	1
2	1787	2555	1
2	1794	2565	1
2	1801	2575	1
2	1808	2585	1
2	1815	2595	1
2	1822	2605	1
2	1829	2615	1
2	1836	2625	1
2	1843	2635	1
2	1850	2645	1
2	1857	2655	1
2	1864	2665	1
2	1871	2675	1
2	1878	2685	1
2	1885	2695	1
2	1892	2705	1
2	1899	2715	1
2	1906	2725	1
2	1913	2735	1
2	1920	2745	1
2	1927	2755	1
2	1934	2765	1
2	1941	2775	1
2	1948	2785	1
2	1955	2795	1
2	1962	2805	1
2	1969	2815	1
2	1976	2825	1
2	1983	2835	1
2	1990	2845	1
2	1997	2855	1
2	2004	2865	1
2	2011	2875	1
2	2018	2885	1
2	2025	2895	1
2	2032	2905	1
2	2039	2915	1
2	2046	2925	1
2	2053	2935	1
2	2060	2945	1
2	2067	2955	1
2	2074	2965	1
2	2081	2975	1
2	2088	2985	1
2	2095	2995	1
2	2102	3005	1
2	2109	3015	1
2	2116	3025	1
2	2123	3035	1
2	2130	3045	1
2	2137	3055	1
2	2144	3065	1
2	2151	3075	1
2	2158	3085	1
2	2165	3095	1
2	2172	3105	1
2	2179	3115	1
2	2186	3125	1
2	2193	3135	1
2	2200	3145	1
2	2207	3155	1
2	2214	3165	1
2	2221	3175	1
2	2228	3185	1
2	2235	3195	1
2	2242	3205	1
2	2249	3215	1
2	2256	3225	1
2	2263	3235	1
2	2270	3245	1
2	2277	3255	1
2	2284	3265	1
2	2291	3275	1
2	2298	3285	1
2	2305	3295	1
2	2312	3305	1
2	2319	3315	1
2	2326	3325	1
2	2333	3335	1
2	2340	3345	1
2	2347	3355	1
2	2354	3365	1
2	2361	3375	1
2	2368	3385	1
2	2375	3395	1
2	2382	3405	1
2	2389	3415	1
2	2396	3425	1
2	2403	3435	1
2	2410	3445	1
2	2417	3455	1
2	2424	3465	1
2	2431	3475	1
2	2438	3485	1
2	2445	3495	1
2	2452	3505	1
2	2459	3515	1
2	2466	3525	1
2	2473	3535	1
2	2480	3545	1
2	2487	3555	1
2	2494	3565	1
2	2501	3575	1
2	2508	3585	1
2	2515	3595	1
3	16	25	5
3	23	35	5
3	30	45	5
3	37	55	5
3	44	65	5
3	51	75	5
3	58	85	5
3	65	95	5
3	72	105	5
3	79	115	5
3	86	125	5
3	93	135	5
3	100	145	5
3	107	155	5
3	114	165	5
3	121	175	5
3	128	185	5
3	135	195	5
3	142	205	5
3	149	215	5
3	156	225	5
3	163	235	5
3	170	245	5
3	177	255	5
3	184	265	5
3	191	275	5
3	198	285	5
3	205	295	5
3	212	305	5
3	219	315	5
3	226	325	5
3	233	335	5
3	240	345	5
3	247	355	5
3	254	365	5
3	261	375	5
3	268	385	5
3	275	395	5
3	282	405	5
3	289	415	5
3	296	425	5
3	303	435	5
3	310	445	5
3	317	455	5
3	324	465	5
3	331	475	5
3	338	485	5
3	345	495	5
3	352	505	5
3	359	515	5
3	366	525	5
3	373	535	5
3	380	545	5
3	387	555	5
3	394	565	5
3	401	575	5
3	408	585	5
3	415	595	5
3	422	605	5
3	429	615	5
3	436	625	5
3	443	635	5
3	450	645	5
3	457	655	5
3	464	665	5
3	471	675	5
3	478	685	5
3	485	695	5
3	492	705	5
3	499	715	5
3	506	725	5
3	513	735	5
3	520	745	5
3	527	755	5
3	534	765	5
3	541	775	5
3	548	785	5
3	555	795	5
3	562	805	5
3	569	815	5
3	576	825	5
3	583	835	5
3	590	845	5
3	597	855	5
3	604	865	5
3	611	875	5
3	618	885	5
3	625	895	5
3	632	905	5
3	639	915	5
3	646	925	5
3	653	935	5
3	660	945	5
3	667	955	5
3	674	965	5
3	681	975	5
3	688	985	5
3	695	995	5
3	702	1005	5
3	709	1015	5
3	716	1025	5
3	723	1035	5
3	730	1045	5
3	737	1055	5
3	744	1065	5
3	751	1075	5
3	758	1085	5
3	765	1095	5
3	772	1105	5
3	779	1115	5
3	786	1125	5
3	793	1135	5
3	800	1145	5
3	807	1155	5
3	814	1165	5
3	821	1175	5
3	828	1185	5
3	835	1195	5
3	842	1205	5
3	849	1215	5
3	856	1225	5
3	863	1235	5
3	870	1245	5
3	877	1255	5
3	884	1265	5
3	891	1275	5
3	898	1285	5
3	905	1295	5
3	912	1305	5
3	919	1315	5
3	926	1325	5
3	933	1335	5
3	940	1345	5
3	947	1355	5
3	954	1365	5
3	961	1375	5
3	968	1385	5
3	975	1395	5
3	982	1405	5
3	989	1415	5
3	996	1425	5
3	1003	1435	5
3	1010	1445	5
3	1017	1455	5
3	1024	1465	5
3	1031	1475	5
3	1038	1485	5
3	1045	1495	5
3	1052	1505	5
3	1059	1515	5
3	1066	1525	5
3	1073	1535	5
3	1080	1545	5
3	1087	1555	5
3	1094	1565	5
3	1101	1575	5
3	1108	1585	5
3	1115	1595	5
3	1122	1605	5
3	1129	1615	5
3	1136	1625	5
3	1143	1635	5
3	1150	1645	5
3	1157	1655	5
3	1164	1665	5
3	1171	1675	5
3	1178	1685	5
3	1185	1695	5
3	1192	1705	5
3	1199	1715	5
3	1206	1725	5
3	1213	1735	5
3	1220	1745	5
3	1227	1755	5
3	1234	1765	5
3	1241	1775	5
3	1248	1785	5
3	1255	1795	5
3	1262	1805	5
3	1269	1815	5
3	1276	1825	5
3	1283	1835	5
3	1290	1845	5
3	1297	1855	5
3	1304	1865	5
3	1311	1875	5
3	1318	1885	5
3	1325	1895	5
3	1332	1905	5
3	1339	1915	5
3	1346	1925	5
3	1353	1935	5
3	1360	1945	5
3	1367	1955	5
3	1374	1965	5
3	1381	1975	5
3	1388	1985	5
3	1395	1995	5
3	1402	2005	5
3	1409	2015	5
3	1416	2025	5
3	1423	2035	5
3	1430	2045	5
3	1437	2055	5
3	1444	2065	5
3	1451	2075	5
3	1458	2085	5
3	1465	2095	5
3	1472	2105	5
3	1479	2115	5
3	1486	2125	5
3	1493	2135	5
3	1500	2145	5
3	1507	2155	5
3	1514	2165	5
3	1521	2175	5
3	1528	2185	5
3	1535	2195	5
3	1542	2205	5
3	1549	2215	5
3	1556	2225	5
3	1563	2235	5
3	1570	2245	5
3	1577	2255	5
3	1584	2265	5
3	1591	2275	5
3	1598	2285	5
3	1605	2295	5
3	1612	2305	5
3	1619	2315	5
3	1626	2325	5
3	1633	2335	5
3	1640	2345	5
3	1647	2355	5
3	1654	2365	5
3	1661	2375	5
3	1668	2385	5
3	1675	2395	5
3	1682	2405	5
3	1689	2415	5
3	1696	2425	5
3	1703	2435	5
3	1710	2445	5
3	1717	2455	5
3	1724	2465	5
3	1731	2475	5
3	1738	2485	5
3	1745	2495	5
3	1752	2505	5
3	1759	2515	5
3	1766	2525	5
3	1773	2535	5
3	1780	2545	5
3	1787	2555	5
3	1794	2565	5
3	1801	2575	5
3	1808	2585	5
3	1815	2595	5
3	1822	2605	5
3	1829	2615	5
3	1836	2625	5
3	1843	2635	5
3	1850	2645	5
3	1857	2655	5
3	1864	2665	5
3	1871	2675	5
3	1878	2685	5
3	1885	2695	5
3	1892	2705	5
3	1899	2715	5
3	1906	2725	5
3	1913	2735	5
3	1920	2745	5
3	1927	2755	5
3	1934	2765	5
3	1941	2775	5
3	1948	2785	5
3	1955	2795	5
3	1962	2805	5
3	1969	2815	5
3	1976	2825	5
3	1983	2835	5
3	1990	2845	5
3	1997	2855	5
3	2004	2865	5
3	2011	2875	5
3	2018	2885	5
3	2025	2895	5
3	2032	2905	5
3	2039	2915	5
3	2046	2925	5
3	2053	2935	5
3	2060	2945	5
3	2067	2955	5
3	2074	2965	5
3	2081	2975	5
3	2088	2985	5
3	2095	2995	5
3	2102	3005	5
3	2109	3015	5
3	2116	3025	5
3	2123	3035	5
3	2130	3045	5
3	2137	3055	5
3	2144	3065	5
3	2151	3075	5
3	2158	3085	5
3	2165	3095	5
3	2172	3105	5
3	2179	3115	5
3	2186	3125	5
3	2193	3135	5
3	2200	3145	5
3	2207	3155	5
3	2214	3165	5
3	2221	3175	5
3	2228	3185	5
3	2235	3195	5
3	2242	3205	5
3	2249	3215	5
3	2256	3225	5
3	2263	3235	5
3	2270	3245	5
3	2277	3255	5
3	2284	3265	5
3	2291	3275	5
3	2298	3285	5
3	2305	3295	5
3	2312	3305	5
3	2319	3315	5
3	2326	3325	5
3	2333	3335	5
3	2340	3345	5
3	2347	3355	5
3	2354	3365	5
3	2361	3375	5
3	2368	3385	5
3	2375	3395	5
3	2382	3405	5
3	2389	3415	5
3	2396	3425	5
3	2403	3435	5
3	2410	3445	5
3	2417	3455	5
3	2424	3465	5
3	2431	3475	5
3	2438	3485	5
3	2445	3495	5
3	2452	3505	5
3	2459	3515	5
3	2466	3525	5
3	2473	3535	5
3	2480	3545	5
3	2487	3555	5
3	2494	3565	5
3	2501	3575	5
3	2508	3585	5
3	2515	3595	5
4	16	25	0
4	23	35	0
4	30	45	0
4	37	55	0
4	44	65	0
4	51	75	0
4	58	85	0
4	65	95	0
4	72	105	0
4	79	115	0
4	86	125	0
4	93	135	0
4	100	145	0
4	107	155	0
4	114	165	0
4	121	175	0
4	128	185	0
4	135	195	0
4	142	205	0
4	149	215	0
4	156	225	0
4	163	235	0
4	170	245	0
4	177	255	0
4	184	265	0
4	191	275	0
4	198	285	0
4	205	295	0
4	212	305	0
4	219	315	0
4	226	325	0
4	233	335	0
4	240	345	0
4	247	355	0
4	254	365	0
4	261	375	0
4	268	385	0
4	275	395	0
4	282	405	0
4	289	415	0
4	296	425	0
4	303	435	0
4	310	445	0
4	317	455	0
4	324	465	0
4	331	475	0
4	338	485	0
4	345	495	0
4	352	505	0
4	359	515	0
4	366	525	0
4	373	535	0
4	380	545	0
4	387	555	0
4	394	565	0
4	401	575	0
4	408	585	0
4	415	595	0
4	422	605	0
4	429	615	0
4	436	625	0
4	443	635	0
4	450	645	0
4	457	655	0
4	464	665	0
4	471	675	0
4	478	685	0
4	485	695	0
4	492	705	0
4	499	715	0
4	506	725	0
4	513	735	0
4	520	745	0
4	527	755	0
4	534	765	0
4	541	775	0
4	548	785	0
4	555	795	0
4	562	805	0
4	569	815	0
4	576	825	0
4	583	835	0
4	590	845	0
4	597	855	0
4	604	865	0
4	611	875	0
4	618	885	0
4	625	895	0
4	632	905	0
4	639	915	0
4	646	925	0
4	653	935	0
4	660	945	0
4	667	955	0
4	674	965	0
4	681	975	0
4	688	985	0
4	695	995	0
4	702	1005	0
4	709	1015	0
4	716	1025	0
4	723	1035	0
4	730	1045	0
4	737	1055	0
4	744	1065	0
4	751	1075	0
4	758	1085	0
4	765	1095	0
4	772	1105	0
4	779	1115	0
4	786	1125	0
4	793	1135	0
4	800	1145	0
4	807	1155	0
4	814	1165	0
4	821	1175	0
4	828	1185	0
4	835	1195	0
4	842	1205	0
4	849	1215	0
4	856	1225	0
4	863	1235	0
4	870	1245	0
4	877	1255	0
4	884	1265	0
4	891	1275	0
4	898	1285	0
4	905	1295	0
4	912	1305	0
4	919	1315	0
4	926	1325	0
4	933	1335	0
4	940	1345	0
4	947	1355	0
4	954	1365	0
4	961	1375	0
4	968	1385	0
4	975	1395	0
4	982	1405	0
4	989	1415	0
4	996	1425	0
4	1003	1435	0
4	1010	1445	0
4	1017	1455	0
4	1024	1465	0
4	1031	1475	0
4	1038	1485	0
4	1045	1495	0
4	1052	1505	0
4	1059	1515	0
4	1066	1525	0
4	1073	1535	0
4	1080	1545	0
4	1087	1555	0
4	1094	1565	0
4	1101	1575	0
4	1108	1585	0
4	1115	1595	0
4	1122	1605	0
4	1129	1615	0
4	1136	1625	0
4	1143	1635	0
4	1150	1645	0
4	1157	1655	0
4	1164	1665	0
4	1171	1675	0
4	1178	1685	0
4	1185	1695	0
4	1192	1705	0
4	1199	1715	0
4	1206	1725	0
4	1213	1735	0
4	1220	1745	0
4	1227	1755	0
4	1234	1765	0
4	1241	1775	0
4	1248	1785	0
4	1255	1795	0
4	1262	1805	0
4	1269	1815	0
4	1276	1825	0
4	1283	1835	0
4	1290	1845	0
4	1297	1855	0
4	1304	1865	0
4	1311	1875	0
4	1318	1885	0
4	1325	1895	0
4	1332	1905	0
4	1339	1915	0
4	1346	1925	0
4	1353	1935	0
4	1360	1945	0
4	1367	1955	0
4	1374	1965	0
4	1381	1975	0
4	1388	1985	0
4	1395	1995	0
4	1402	2005	0
4	1409	2015	0
4	1416	2025	0
4	1423	2035	0
4	1430	2045	0
4	1437	2055	0
4	1444	2065	0
4	1451	2075	0
4	1458	2085	0
4	1465	2095	0
4	1472	2105	0
4	1479	2115	0
4	1486	2125	0
4	1493	2135	0
4	1500	2145	0
4	1507	2155	0
4	1514	2165	0
4	1521	2175	0
4	1528	2185	0
4	1535	2195	0
4	1542	2205	0
4	1549	2215	0
4	1556	2225	0
4	1563	2235	0
4	1570	2245	0
4	1577	2255	0
4	1584	2265	0
4	1591	2275	0
4	1598	2285	0
4	1605	2295	0
4	1612	2305	0
4	1619	2315	0
4	1626	2325	0
4	1633	2335	0
4	1640	2345	0
4	1647	2355	0
4	1654	2365	0
4	1661	2375	0
4	1668	2385	0
4	1675	2395	0
4	1682	2405	0
4	1689	2415	0
4	1696	2425	0
4	1703	2435	0
4	1710	2445	0
4	1717	2455	0
4	1724	2465	0
4	1731	2475	0
4	1738	2485	0
4	1745	2495	0
4	1752	2505	0
4	1759	2515	0
4	1766	2525	0
4	1773	2535	0
4	1780	2545	0
4	1787	2555	0
4	1794	2565	0
4	1801	2575	0
4	1808	2585	0
4	1815	2595	0
4	1822	2605	0
4	1829	2615	0
4	1836	2625	0
4	1843	2635	0
4	1850	2645	0
4	1857	2655	0
4	1864	2665	0
4	1871	2675	0
4	1878	2685	0
4	1885	2695	0
4	1892	2705	0
4	1899	2715	0
4	1906	2725	0
4	1913	2735	0
4	1920	2745	0
4	1927	2755	0
4	1934	2765	0
4	1941	2775	0
4	1948	2785	0
4	1955	2795	0
4	1962	2805	0
4	1969	2815	0
4	1976	2825	0
4	1983	2835	0
4	1990	2845	0
4	1997	2855	0
4	2004	2865	0
4	2011	2875	0
4	2018	2885	0
4	2025	2895	0
4	2032	2905	0
4	2039	2915	0
4	2046	2925	0
4	2053	2935	0
4	2060	2945	0
4	2067	2955	0
4	2074	2965	0
4	2081	2975	0
4	2088	2985	0
4	2095	2995	0
4	2102	3005	0
4	2109	3015	0
4	2116	3025	0
4	2123	3035	0
4	2130	3045	0
4	2137	3055	0
4	2144	3065	0
4	2151	3075	0
4	2158	3085	0
4	2165	3095	0
4	2172	3105	0
4	2179	3115	0
4	2186	3125	0
4	2193	3135	0
4	2200	3145	0
4	2207	3155	0
4	2214	3165	0
4	2221	3175	0
4	2228	3185	0
4	2235	3195	0
4	2242	3205	0
4	2249	3215	0
4	2256	3225	0
4	2263	3235	0
4	2270	3245	0
4	2277	3255	0
4	2284	3265	0
4	2291	3275	0
4	2298	3285	0
4	2305	3295	0
4	2312	3305	0
4	2319	3315	0
4	2326	3325	0
4	2333	3335	0
4	2340	3345	0
4	2347	3355	0
4	2354	3365	0
4	2361	3375	0
4	2368	3385	0
4	2375	3395	0
4	2382	3405	0
4	2389	3415	0
4	2396	3425	0
4	2403	3435	0
4	2410	3445	0
4	2417	3455	0
4	2424	3465	0
4	2431	3475	0
4	2438	3485	0
4	2445	3495	0
4	2452	3505	0
4	2459	3515	0
4	2466	3525	0
4	2473	3535	0
4	2480	3545	0
4	2487	3555	0
4	2494	3565	0
4	2501	3575	0
4	2508	3585	0
4	2515	3595	0

