version 2
run FourthVerification-1-20201214-15:19:43-220821
attr configname FourthVerification
attr datetime 20201214-15:19:43
attr experiment FourthVerification
attr inifile omnetpp.ini
attr iterationvars $0=0.4
attr iterationvarsf 0.4-
attr measurement $0=0.4
attr network slottedNetwork
attr processid 220821
attr repetition 0
attr replication #0
attr resultdir results
attr runnumber 1
attr seedset 1
param **.numTransmitters 50
param **.numChannels 1
param **.bufferSize 5
param **.sendProbability 0.4
param **.expMean 4s
param **.timeSlotSize 5s
param **.thresh 20s
param **.deterministicInterarrivalTime true
param **.numTransmitters 1
param **.numChannels 1
param **.bufferSize 5
param **.sendProbability 1
param **.expMean 5s
param **.timeSlotSize 5s
param **.thresh 20s
param **.deterministicInterarrivalTime false

vector 0 slottedNetwork.transmitters[0] numPacketCreated:vector ETV
attr source numPacketCreatedSignal
vector 1 slottedNetwork.transmitters[1] numPacketCreated:vector ETV
attr source numPacketCreatedSignal
vector 2 slottedNetwork.transmitters[2] numPacketCreated:vector ETV
attr source numPacketCreatedSignal
vector 3 slottedNetwork.transmitters[3] numPacketCreated:vector ETV
attr source numPacketCreatedSignal
vector 4 slottedNetwork.transmitters[4] numPacketCreated:vector ETV
attr source numPacketCreatedSignal
vector 5 slottedNetwork.transmitters[5] numPacketCreated:vector ETV
attr source numPacketCreatedSignal
vector 6 slottedNetwork.transmitters[6] numPacketCreated:vector ETV
attr source numPacketCreatedSignal
vector 7 slottedNetwork.transmitters[7] numPacketCreated:vector ETV
attr source numPacketCreatedSignal
vector 8 slottedNetwork.transmitters[8] numPacketCreated:vector ETV
attr source numPacketCreatedSignal
vector 9 slottedNetwork.transmitters[9] numPacketCreated:vector ETV
attr source numPacketCreatedSignal
vector 10 slottedNetwork.transmitters[10] numPacketCreated:vector ETV
attr source numPacketCreatedSignal
vector 11 slottedNetwork.transmitters[11] numPacketCreated:vector ETV
attr source numPacketCreatedSignal
vector 12 slottedNetwork.transmitters[12] numPacketCreated:vector ETV
attr source numPacketCreatedSignal
vector 13 slottedNetwork.transmitters[13] numPacketCreated:vector ETV
attr source numPacketCreatedSignal
vector 14 slottedNetwork.transmitters[14] numPacketCreated:vector ETV
attr source numPacketCreatedSignal
vector 15 slottedNetwork.transmitters[15] numPacketCreated:vector ETV
attr source numPacketCreatedSignal
vector 16 slottedNetwork.transmitters[16] numPacketCreated:vector ETV
attr source numPacketCreatedSignal
vector 17 slottedNetwork.transmitters[17] numPacketCreated:vector ETV
attr source numPacketCreatedSignal
vector 18 slottedNetwork.transmitters[18] numPacketCreated:vector ETV
attr source numPacketCreatedSignal
vector 19 slottedNetwork.transmitters[19] numPacketCreated:vector ETV
attr source numPacketCreatedSignal
vector 20 slottedNetwork.transmitters[20] numPacketCreated:vector ETV
attr source numPacketCreatedSignal
vector 21 slottedNetwork.transmitters[21] numPacketCreated:vector ETV
attr source numPacketCreatedSignal
vector 22 slottedNetwork.transmitters[22] numPacketCreated:vector ETV
attr source numPacketCreatedSignal
vector 23 slottedNetwork.transmitters[23] numPacketCreated:vector ETV
attr source numPacketCreatedSignal
vector 24 slottedNetwork.transmitters[24] numPacketCreated:vector ETV
attr source numPacketCreatedSignal
vector 25 slottedNetwork.transmitters[25] numPacketCreated:vector ETV
attr source numPacketCreatedSignal
vector 26 slottedNetwork.transmitters[26] numPacketCreated:vector ETV
attr source numPacketCreatedSignal
vector 27 slottedNetwork.transmitters[27] numPacketCreated:vector ETV
attr source numPacketCreatedSignal
vector 28 slottedNetwork.transmitters[28] numPacketCreated:vector ETV
attr source numPacketCreatedSignal
vector 29 slottedNetwork.transmitters[29] numPacketCreated:vector ETV
attr source numPacketCreatedSignal
vector 30 slottedNetwork.transmitters[30] numPacketCreated:vector ETV
attr source numPacketCreatedSignal
vector 31 slottedNetwork.transmitters[31] numPacketCreated:vector ETV
attr source numPacketCreatedSignal
vector 32 slottedNetwork.transmitters[32] numPacketCreated:vector ETV
attr source numPacketCreatedSignal
vector 33 slottedNetwork.transmitters[33] numPacketCreated:vector ETV
attr source numPacketCreatedSignal
vector 34 slottedNetwork.transmitters[34] numPacketCreated:vector ETV
attr source numPacketCreatedSignal
vector 35 slottedNetwork.transmitters[35] numPacketCreated:vector ETV
attr source numPacketCreatedSignal
vector 36 slottedNetwork.transmitters[36] numPacketCreated:vector ETV
attr source numPacketCreatedSignal
vector 37 slottedNetwork.transmitters[37] numPacketCreated:vector ETV
attr source numPacketCreatedSignal
vector 38 slottedNetwork.transmitters[38] numPacketCreated:vector ETV
attr source numPacketCreatedSignal
vector 39 slottedNetwork.transmitters[39] numPacketCreated:vector ETV
attr source numPacketCreatedSignal
vector 40 slottedNetwork.transmitters[40] numPacketCreated:vector ETV
attr source numPacketCreatedSignal
vector 41 slottedNetwork.transmitters[41] numPacketCreated:vector ETV
attr source numPacketCreatedSignal
vector 42 slottedNetwork.transmitters[42] numPacketCreated:vector ETV
attr source numPacketCreatedSignal
vector 43 slottedNetwork.transmitters[43] numPacketCreated:vector ETV
attr source numPacketCreatedSignal
vector 44 slottedNetwork.transmitters[44] numPacketCreated:vector ETV
attr source numPacketCreatedSignal
vector 45 slottedNetwork.transmitters[45] numPacketCreated:vector ETV
attr source numPacketCreatedSignal
vector 46 slottedNetwork.transmitters[46] numPacketCreated:vector ETV
attr source numPacketCreatedSignal
vector 47 slottedNetwork.transmitters[47] numPacketCreated:vector ETV
attr source numPacketCreatedSignal
vector 48 slottedNetwork.transmitters[48] numPacketCreated:vector ETV
attr source numPacketCreatedSignal
vector 49 slottedNetwork.transmitters[49] numPacketCreated:vector ETV
attr source numPacketCreatedSignal
vector 50 slottedNetwork.ch throughput:vector ETV
attr source throughputSignal
vector 51 slottedNetwork.transmitters[0] numPacketDiscarded:vector ETV
attr source numPacketDiscardedSignal
vector 52 slottedNetwork.transmitters[1] numPacketDiscarded:vector ETV
attr source numPacketDiscardedSignal
vector 53 slottedNetwork.transmitters[2] numPacketDiscarded:vector ETV
attr source numPacketDiscardedSignal
vector 54 slottedNetwork.transmitters[3] numPacketDiscarded:vector ETV
attr source numPacketDiscardedSignal
vector 55 slottedNetwork.transmitters[4] numPacketDiscarded:vector ETV
attr source numPacketDiscardedSignal
vector 56 slottedNetwork.transmitters[5] numPacketDiscarded:vector ETV
attr source numPacketDiscardedSignal
vector 57 slottedNetwork.transmitters[6] numPacketDiscarded:vector ETV
attr source numPacketDiscardedSignal
vector 58 slottedNetwork.transmitters[7] numPacketDiscarded:vector ETV
attr source numPacketDiscardedSignal
vector 59 slottedNetwork.transmitters[8] numPacketDiscarded:vector ETV
attr source numPacketDiscardedSignal
vector 60 slottedNetwork.transmitters[9] numPacketDiscarded:vector ETV
attr source numPacketDiscardedSignal
vector 61 slottedNetwork.transmitters[10] numPacketDiscarded:vector ETV
attr source numPacketDiscardedSignal
vector 62 slottedNetwork.transmitters[11] numPacketDiscarded:vector ETV
attr source numPacketDiscardedSignal
vector 63 slottedNetwork.transmitters[12] numPacketDiscarded:vector ETV
attr source numPacketDiscardedSignal
vector 64 slottedNetwork.transmitters[13] numPacketDiscarded:vector ETV
attr source numPacketDiscardedSignal
vector 65 slottedNetwork.transmitters[14] numPacketDiscarded:vector ETV
attr source numPacketDiscardedSignal
vector 66 slottedNetwork.transmitters[15] numPacketDiscarded:vector ETV
attr source numPacketDiscardedSignal
vector 67 slottedNetwork.transmitters[16] numPacketDiscarded:vector ETV
attr source numPacketDiscardedSignal
vector 68 slottedNetwork.transmitters[17] numPacketDiscarded:vector ETV
attr source numPacketDiscardedSignal
vector 69 slottedNetwork.transmitters[18] numPacketDiscarded:vector ETV
attr source numPacketDiscardedSignal
vector 70 slottedNetwork.transmitters[19] numPacketDiscarded:vector ETV
attr source numPacketDiscardedSignal
vector 71 slottedNetwork.transmitters[20] numPacketDiscarded:vector ETV
attr source numPacketDiscardedSignal
vector 72 slottedNetwork.transmitters[21] numPacketDiscarded:vector ETV
attr source numPacketDiscardedSignal
vector 73 slottedNetwork.transmitters[22] numPacketDiscarded:vector ETV
attr source numPacketDiscardedSignal
vector 74 slottedNetwork.transmitters[23] numPacketDiscarded:vector ETV
attr source numPacketDiscardedSignal
vector 75 slottedNetwork.transmitters[24] numPacketDiscarded:vector ETV
attr source numPacketDiscardedSignal
vector 76 slottedNetwork.transmitters[25] numPacketDiscarded:vector ETV
attr source numPacketDiscardedSignal
vector 77 slottedNetwork.transmitters[26] numPacketDiscarded:vector ETV
attr source numPacketDiscardedSignal
vector 78 slottedNetwork.transmitters[27] numPacketDiscarded:vector ETV
attr source numPacketDiscardedSignal
vector 79 slottedNetwork.transmitters[28] numPacketDiscarded:vector ETV
attr source numPacketDiscardedSignal
vector 80 slottedNetwork.transmitters[29] numPacketDiscarded:vector ETV
attr source numPacketDiscardedSignal
vector 81 slottedNetwork.transmitters[30] numPacketDiscarded:vector ETV
attr source numPacketDiscardedSignal
vector 82 slottedNetwork.transmitters[31] numPacketDiscarded:vector ETV
attr source numPacketDiscardedSignal
vector 83 slottedNetwork.transmitters[32] numPacketDiscarded:vector ETV
attr source numPacketDiscardedSignal
vector 84 slottedNetwork.transmitters[33] numPacketDiscarded:vector ETV
attr source numPacketDiscardedSignal
vector 85 slottedNetwork.transmitters[34] numPacketDiscarded:vector ETV
attr source numPacketDiscardedSignal
vector 86 slottedNetwork.transmitters[35] numPacketDiscarded:vector ETV
attr source numPacketDiscardedSignal
vector 87 slottedNetwork.transmitters[36] numPacketDiscarded:vector ETV
attr source numPacketDiscardedSignal
vector 88 slottedNetwork.transmitters[37] numPacketDiscarded:vector ETV
attr source numPacketDiscardedSignal
vector 89 slottedNetwork.transmitters[38] numPacketDiscarded:vector ETV
attr source numPacketDiscardedSignal
vector 90 slottedNetwork.transmitters[39] numPacketDiscarded:vector ETV
attr source numPacketDiscardedSignal
vector 91 slottedNetwork.transmitters[40] numPacketDiscarded:vector ETV
attr source numPacketDiscardedSignal
vector 92 slottedNetwork.transmitters[41] numPacketDiscarded:vector ETV
attr source numPacketDiscardedSignal
vector 93 slottedNetwork.transmitters[42] numPacketDiscarded:vector ETV
attr source numPacketDiscardedSignal
vector 94 slottedNetwork.transmitters[43] numPacketDiscarded:vector ETV
attr source numPacketDiscardedSignal
vector 95 slottedNetwork.transmitters[44] numPacketDiscarded:vector ETV
attr source numPacketDiscardedSignal
vector 96 slottedNetwork.transmitters[45] numPacketDiscarded:vector ETV
attr source numPacketDiscardedSignal
vector 97 slottedNetwork.transmitters[46] numPacketDiscarded:vector ETV
attr source numPacketDiscardedSignal
vector 98 slottedNetwork.transmitters[47] numPacketDiscarded:vector ETV
attr source numPacketDiscardedSignal
vector 99 slottedNetwork.transmitters[48] numPacketDiscarded:vector ETV
attr source numPacketDiscardedSignal
vector 100 slottedNetwork.transmitters[49] numPacketDiscarded:vector ETV
attr source numPacketDiscardedSignal
vector 101 slottedNetwork.receivers[14] numPacketReceived:vector ETV
attr source numPacketReceivedSignal
vector 102 slottedNetwork.receivers[14] responseTime:vector ETV
attr source responseTimeSignal
vector 103 slottedNetwork.receivers[14] threshold:vector ETV
attr source thresholdSignal
vector 104 slottedNetwork.receivers[2] numPacketReceived:vector ETV
attr source numPacketReceivedSignal
vector 105 slottedNetwork.receivers[2] responseTime:vector ETV
attr source responseTimeSignal
vector 106 slottedNetwork.receivers[2] threshold:vector ETV
attr source thresholdSignal
vector 107 slottedNetwork.receivers[28] numPacketReceived:vector ETV
attr source numPacketReceivedSignal
vector 108 slottedNetwork.receivers[28] responseTime:vector ETV
attr source responseTimeSignal
vector 109 slottedNetwork.receivers[28] threshold:vector ETV
attr source thresholdSignal
vector 110 slottedNetwork.receivers[12] numPacketReceived:vector ETV
attr source numPacketReceivedSignal
vector 111 slottedNetwork.receivers[12] responseTime:vector ETV
attr source responseTimeSignal
vector 112 slottedNetwork.receivers[12] threshold:vector ETV
attr source thresholdSignal
vector 113 slottedNetwork.receivers[24] numPacketReceived:vector ETV
attr source numPacketReceivedSignal
vector 114 slottedNetwork.receivers[24] responseTime:vector ETV
attr source responseTimeSignal
vector 115 slottedNetwork.receivers[24] threshold:vector ETV
attr source thresholdSignal
vector 116 slottedNetwork.receivers[36] numPacketReceived:vector ETV
attr source numPacketReceivedSignal
vector 117 slottedNetwork.receivers[36] responseTime:vector ETV
attr source responseTimeSignal
vector 118 slottedNetwork.receivers[36] threshold:vector ETV
attr source thresholdSignal
vector 119 slottedNetwork.receivers[44] numPacketReceived:vector ETV
attr source numPacketReceivedSignal
vector 120 slottedNetwork.receivers[44] responseTime:vector ETV
attr source responseTimeSignal
vector 121 slottedNetwork.receivers[44] threshold:vector ETV
attr source thresholdSignal
vector 122 slottedNetwork.receivers[41] numPacketReceived:vector ETV
attr source numPacketReceivedSignal
vector 123 slottedNetwork.receivers[41] responseTime:vector ETV
attr source responseTimeSignal
vector 124 slottedNetwork.receivers[41] threshold:vector ETV
attr source thresholdSignal
vector 125 slottedNetwork.receivers[43] numPacketReceived:vector ETV
attr source numPacketReceivedSignal
vector 126 slottedNetwork.receivers[43] responseTime:vector ETV
attr source responseTimeSignal
vector 127 slottedNetwork.receivers[43] threshold:vector ETV
attr source thresholdSignal
vector 128 slottedNetwork.receivers[6] numPacketReceived:vector ETV
attr source numPacketReceivedSignal
vector 129 slottedNetwork.receivers[6] responseTime:vector ETV
attr source responseTimeSignal
vector 130 slottedNetwork.receivers[6] threshold:vector ETV
attr source thresholdSignal
vector 131 slottedNetwork.receivers[46] numPacketReceived:vector ETV
attr source numPacketReceivedSignal
vector 132 slottedNetwork.receivers[46] responseTime:vector ETV
attr source responseTimeSignal
vector 133 slottedNetwork.receivers[46] threshold:vector ETV
attr source thresholdSignal
vector 134 slottedNetwork.receivers[4] numPacketReceived:vector ETV
attr source numPacketReceivedSignal
vector 135 slottedNetwork.receivers[4] responseTime:vector ETV
attr source responseTimeSignal
vector 136 slottedNetwork.receivers[4] threshold:vector ETV
attr source thresholdSignal
vector 137 slottedNetwork.receivers[5] numPacketReceived:vector ETV
attr source numPacketReceivedSignal
vector 138 slottedNetwork.receivers[5] responseTime:vector ETV
attr source responseTimeSignal
vector 139 slottedNetwork.receivers[5] threshold:vector ETV
attr source thresholdSignal
vector 140 slottedNetwork.receivers[49] numPacketReceived:vector ETV
attr source numPacketReceivedSignal
vector 141 slottedNetwork.receivers[49] responseTime:vector ETV
attr source responseTimeSignal
vector 142 slottedNetwork.receivers[49] threshold:vector ETV
attr source thresholdSignal
vector 143 slottedNetwork.receivers[21] numPacketReceived:vector ETV
attr source numPacketReceivedSignal
vector 144 slottedNetwork.receivers[21] responseTime:vector ETV
attr source responseTimeSignal
vector 145 slottedNetwork.receivers[21] threshold:vector ETV
attr source thresholdSignal
vector 146 slottedNetwork.receivers[47] numPacketReceived:vector ETV
attr source numPacketReceivedSignal
vector 147 slottedNetwork.receivers[47] responseTime:vector ETV
attr source responseTimeSignal
vector 148 slottedNetwork.receivers[47] threshold:vector ETV
attr source thresholdSignal
vector 149 slottedNetwork.receivers[8] numPacketReceived:vector ETV
attr source numPacketReceivedSignal
vector 150 slottedNetwork.receivers[8] responseTime:vector ETV
attr source responseTimeSignal
vector 151 slottedNetwork.receivers[8] threshold:vector ETV
attr source thresholdSignal
vector 152 slottedNetwork.receivers[18] numPacketReceived:vector ETV
attr source numPacketReceivedSignal
vector 153 slottedNetwork.receivers[18] responseTime:vector ETV
attr source responseTimeSignal
vector 154 slottedNetwork.receivers[18] threshold:vector ETV
attr source thresholdSignal
vector 155 slottedNetwork.receivers[15] numPacketReceived:vector ETV
attr source numPacketReceivedSignal
vector 156 slottedNetwork.receivers[15] responseTime:vector ETV
attr source responseTimeSignal
vector 157 slottedNetwork.receivers[15] threshold:vector ETV
attr source thresholdSignal
vector 158 slottedNetwork.receivers[38] numPacketReceived:vector ETV
attr source numPacketReceivedSignal
vector 159 slottedNetwork.receivers[38] responseTime:vector ETV
attr source responseTimeSignal
vector 160 slottedNetwork.receivers[38] threshold:vector ETV
attr source thresholdSignal
vector 161 slottedNetwork.receivers[17] numPacketReceived:vector ETV
attr source numPacketReceivedSignal
vector 162 slottedNetwork.receivers[17] responseTime:vector ETV
attr source responseTimeSignal
vector 163 slottedNetwork.receivers[17] threshold:vector ETV
attr source thresholdSignal
vector 164 slottedNetwork.receivers[35] numPacketReceived:vector ETV
attr source numPacketReceivedSignal
vector 165 slottedNetwork.receivers[35] responseTime:vector ETV
attr source responseTimeSignal
vector 166 slottedNetwork.receivers[35] threshold:vector ETV
attr source thresholdSignal
vector 167 slottedNetwork.receivers[9] numPacketReceived:vector ETV
attr source numPacketReceivedSignal
vector 168 slottedNetwork.receivers[9] responseTime:vector ETV
attr source responseTimeSignal
vector 169 slottedNetwork.receivers[9] threshold:vector ETV
attr source thresholdSignal
vector 170 slottedNetwork.receivers[37] numPacketReceived:vector ETV
attr source numPacketReceivedSignal
vector 171 slottedNetwork.receivers[37] responseTime:vector ETV
attr source responseTimeSignal
vector 172 slottedNetwork.receivers[37] threshold:vector ETV
attr source thresholdSignal
vector 173 slottedNetwork.receivers[11] numPacketReceived:vector ETV
attr source numPacketReceivedSignal
vector 174 slottedNetwork.receivers[11] responseTime:vector ETV
attr source responseTimeSignal
vector 175 slottedNetwork.receivers[11] threshold:vector ETV
attr source thresholdSignal
vector 176 slottedNetwork.receivers[31] numPacketReceived:vector ETV
attr source numPacketReceivedSignal
vector 177 slottedNetwork.receivers[31] responseTime:vector ETV
attr source responseTimeSignal
vector 178 slottedNetwork.receivers[31] threshold:vector ETV
attr source thresholdSignal
vector 179 slottedNetwork.receivers[22] numPacketReceived:vector ETV
attr source numPacketReceivedSignal
vector 180 slottedNetwork.receivers[22] responseTime:vector ETV
attr source responseTimeSignal
vector 181 slottedNetwork.receivers[22] threshold:vector ETV
attr source thresholdSignal
vector 182 slottedNetwork.receivers[29] numPacketReceived:vector ETV
attr source numPacketReceivedSignal
vector 183 slottedNetwork.receivers[29] responseTime:vector ETV
attr source responseTimeSignal
vector 184 slottedNetwork.receivers[29] threshold:vector ETV
attr source thresholdSignal
vector 185 slottedNetwork.receivers[7] numPacketReceived:vector ETV
attr source numPacketReceivedSignal
vector 186 slottedNetwork.receivers[7] responseTime:vector ETV
attr source responseTimeSignal
vector 187 slottedNetwork.receivers[7] threshold:vector ETV
attr source thresholdSignal
vector 188 slottedNetwork.receivers[23] numPacketReceived:vector ETV
attr source numPacketReceivedSignal
vector 189 slottedNetwork.receivers[23] responseTime:vector ETV
attr source responseTimeSignal
vector 190 slottedNetwork.receivers[23] threshold:vector ETV
attr source thresholdSignal
vector 191 slottedNetwork.receivers[48] numPacketReceived:vector ETV
attr source numPacketReceivedSignal
vector 192 slottedNetwork.receivers[48] responseTime:vector ETV
attr source responseTimeSignal
vector 193 slottedNetwork.receivers[48] threshold:vector ETV
attr source thresholdSignal
vector 194 slottedNetwork.receivers[20] numPacketReceived:vector ETV
attr source numPacketReceivedSignal
vector 195 slottedNetwork.receivers[20] responseTime:vector ETV
attr source responseTimeSignal
vector 196 slottedNetwork.receivers[20] threshold:vector ETV
attr source thresholdSignal
vector 197 slottedNetwork.receivers[3] numPacketReceived:vector ETV
attr source numPacketReceivedSignal
vector 198 slottedNetwork.receivers[3] responseTime:vector ETV
attr source responseTimeSignal
vector 199 slottedNetwork.receivers[3] threshold:vector ETV
attr source thresholdSignal
vector 200 slottedNetwork.receivers[39] numPacketReceived:vector ETV
attr source numPacketReceivedSignal
vector 201 slottedNetwork.receivers[39] responseTime:vector ETV
attr source responseTimeSignal
vector 202 slottedNetwork.receivers[39] threshold:vector ETV
attr source thresholdSignal
vector 203 slottedNetwork.receivers[45] numPacketReceived:vector ETV
attr source numPacketReceivedSignal
vector 204 slottedNetwork.receivers[45] responseTime:vector ETV
attr source responseTimeSignal
vector 205 slottedNetwork.receivers[45] threshold:vector ETV
attr source thresholdSignal
vector 206 slottedNetwork.receivers[0] numPacketReceived:vector ETV
attr source numPacketReceivedSignal
vector 207 slottedNetwork.receivers[0] responseTime:vector ETV
attr source responseTimeSignal
vector 208 slottedNetwork.receivers[0] threshold:vector ETV
attr source thresholdSignal
0	1	4	1
0	120	8	1
0	234	12	1
0	346	16	1
0	397	20	1
0	503	24	1
0	606	28	1
0	716	32	1
0	825	36	1
0	876	40	1
0	981	44	1
0	1089	48	1
0	1199	52	1
0	1305	56	1
0	1356	60	1
0	1462	64	1
0	1566	68	1
0	1673	72	1
0	1780	76	1
0	1831	80	1
0	1936	84	1
0	2040	88	1
0	2150	92	1
0	2256	96	1
0	2307	100	1
0	2414	104	1
0	2517	108	1
0	2622	112	1
0	2725	116	1
0	2776	120	1
0	2883	124	1
0	2988	128	1
0	3093	132	1
0	3196	136	1
0	3247	140	1
0	3350	144	1
0	3456	148	1
0	3560	152	1
0	3668	156	1
0	3719	160	1
0	3823	164	1
0	3928	168	1
0	4032	172	1
0	4135	176	1
0	4186	180	1
0	4288	184	1
0	4390	188	1
0	4494	192	1
0	4599	196	1
0	4650	200	1
0	4751	204	1
0	4857	208	1
0	4961	212	1
0	5064	216	1
0	5115	220	1
0	5219	224	1
0	5321	228	1
0	5423	232	1
0	5526	236	1
0	5577	240	1
0	5681	244	1
0	5783	248	1
0	5890	252	1
0	5994	256	1
0	6045	260	1
0	6145	264	1
0	6249	268	1
0	6350	272	1
0	6454	276	1
0	6505	280	1
0	6608	284	1
0	6710	288	1
0	6819	292	1
0	6923	296	1
0	6974	300	1
0	7075	304	1
0	7178	308	1
0	7284	312	1
0	7387	316	1
0	7438	320	1
0	7539	324	1
0	7643	328	1
0	7744	332	1
0	7848	336	1
0	7899	340	1
0	8001	344	1
0	8104	348	1
0	8206	352	1
0	8313	356	1
0	8364	360	1
0	8465	364	1
0	8568	368	1
0	8674	372	1
0	8776	376	1
0	8827	380	1
0	8931	384	1
0	9032	388	1
0	9135	392	1
0	9239	396	1
0	9290	400	1
0	9393	404	1
0	9495	408	1
0	9597	412	1
0	9700	416	1
0	9751	420	1
0	9854	424	1
0	9956	428	1
0	10063	432	1
0	10167	436	1
0	10218	440	1
0	10319	444	1
0	10424	448	1
0	10526	452	1
0	10630	456	1
0	10681	460	1
0	10783	464	1
0	10887	468	1
0	10988	472	1
0	11091	476	1
0	11142	480	1
0	11245	484	1
0	11348	488	1
0	11449	492	1
0	11552	496	1
0	11603	500	1
0	11704	504	1
0	11808	508	1
0	11911	512	1
0	12014	516	1
0	12065	520	1
0	12168	524	1
0	12272	528	1
0	12374	532	1
0	12477	536	1
0	12528	540	1
0	12633	544	1
0	12738	548	1
0	12841	552	1
0	12943	556	1
0	12994	560	1
0	13097	564	1
0	13201	568	1
0	13304	572	1
0	13407	576	1
0	13458	580	1
0	13558	584	1
0	13660	588	1
0	13766	592	1
0	13871	596	1
0	13922	600	1
0	14023	604	1
0	14129	608	1
0	14232	612	1
0	14334	616	1
0	14385	620	1
0	14486	624	1
0	14588	628	1
0	14692	632	1
0	14793	636	1
0	14844	640	1
0	14948	644	1
0	15050	648	1
0	15153	652	1
0	15256	656	1
0	15307	660	1
0	15411	664	1
0	15513	668	1
0	15617	672	1
0	15719	676	1
0	15770	680	1
0	15871	684	1
0	15974	688	1
0	16076	692	1
0	16180	696	1
0	16231	700	1
0	16332	704	1
0	16436	708	1
0	16539	712	1
0	16641	716	1
0	16692	720	1
0	16796	724	1
0	16898	728	1
0	17003	732	1
0	17108	736	1
0	17159	740	1
0	17261	744	1
0	17364	748	1
0	17466	752	1
0	17568	756	1
0	17619	760	1
0	17721	764	1
0	17824	768	1
0	17927	772	1
0	18028	776	1
0	18079	780	1
0	18179	784	1
0	18281	788	1
0	18389	792	1
0	18491	796	1
0	18542	800	1
0	18645	804	1
0	18747	808	1
0	18852	812	1
0	18955	816	1
0	19006	820	1
0	19106	824	1
0	19207	828	1
0	19309	832	1
0	19412	836	1
0	19463	840	1
0	19567	844	1
0	19670	848	1
0	19774	852	1
0	19875	856	1
0	19926	860	1
0	20027	864	1
0	20133	868	1
0	20235	872	1
0	20339	876	1
0	20390	880	1
0	20495	884	1
0	20599	888	1
0	20702	892	1
0	20804	896	1
0	20855	900	1
0	20957	904	1
0	21059	908	1
0	21165	912	1
0	21267	916	1
0	21318	920	1
0	21419	924	1
0	21521	928	1
0	21627	932	1
0	21728	936	1
0	21779	940	1
0	21880	944	1
0	21987	948	1
0	22089	952	1
0	22192	956	1
0	22243	960	1
0	22348	964	1
0	22449	968	1
0	22551	972	1
0	22656	976	1
0	22707	980	1
0	22809	984	1
0	22911	988	1
0	23014	992	1
0	23118	996	1
0	23169	1000	1
0	23271	1004	1
0	23374	1008	1
0	23476	1012	1
0	23580	1016	1
0	23631	1020	1
0	23732	1024	1
0	23837	1028	1
0	23939	1032	1
0	24041	1036	1
0	24092	1040	1
0	24195	1044	1
0	24300	1048	1
0	24402	1052	1
0	24505	1056	1
0	24556	1060	1
0	24658	1064	1
0	24762	1068	1
0	24866	1072	1
0	24967	1076	1
0	25018	1080	1
0	25119	1084	1
0	25223	1088	1
0	25325	1092	1
0	25429	1096	1
0	25480	1100	1
0	25580	1104	1
0	25681	1108	1
0	25783	1112	1
0	25888	1116	1
0	25939	1120	1
0	26043	1124	1
0	26147	1128	1
0	26248	1132	1
0	26350	1136	1
0	26401	1140	1
0	26502	1144	1
0	26605	1148	1
0	26706	1152	1
0	26808	1156	1
0	26859	1160	1
0	26962	1164	1
0	27063	1168	1
0	27165	1172	1
0	27273	1176	1
0	27324	1180	1
0	27425	1184	1
0	27529	1188	1
0	27630	1192	1
0	27731	1196	1
0	27782	1200	1
0	27883	1204	1
0	27986	1208	1
0	28089	1212	1
0	28192	1216	1
0	28243	1220	1
0	28346	1224	1
0	28448	1228	1
0	28551	1232	1
0	28654	1236	1
0	28705	1240	1
0	28807	1244	1
0	28911	1248	1
0	29015	1252	1
0	29117	1256	1
0	29168	1260	1
0	29269	1264	1
0	29372	1268	1
0	29477	1272	1
0	29578	1276	1
0	29629	1280	1
0	29730	1284	1
0	29832	1288	1
0	29936	1292	1
0	30039	1296	1
0	30090	1300	1
0	30192	1304	1
0	30293	1308	1
0	30396	1312	1
0	30499	1316	1
0	30550	1320	1
0	30650	1324	1
0	30753	1328	1
0	30855	1332	1
0	30960	1336	1
0	31011	1340	1
0	31111	1344	1
0	31212	1348	1
0	31317	1352	1
0	31418	1356	1
0	31469	1360	1
0	31570	1364	1
0	31673	1368	1
0	31777	1372	1
0	31879	1376	1
0	31930	1380	1
0	32034	1384	1
0	32137	1388	1
0	32239	1392	1
0	32342	1396	1
0	32393	1400	1
0	32499	1404	1
0	32601	1408	1
0	32706	1412	1
0	32808	1416	1
0	32859	1420	1
0	32964	1424	1
0	33067	1428	1
0	33168	1432	1
0	33271	1436	1
0	33322	1440	1
0	33424	1444	1
0	33527	1448	1
0	33628	1452	1
0	33729	1456	1
0	33780	1460	1
0	33880	1464	1
0	33981	1468	1
0	34082	1472	1
0	34186	1476	1
0	34237	1480	1
0	34337	1484	1
0	34440	1488	1
0	34544	1492	1
0	34647	1496	1
0	34698	1500	1
0	34800	1504	1
0	34901	1508	1
0	35002	1512	1
0	35103	1516	1
0	35154	1520	1
0	35254	1524	1
0	35356	1528	1
0	35458	1532	1
0	35560	1536	1
0	35611	1540	1
0	35713	1544	1
0	35816	1548	1
0	35920	1552	1
0	36022	1556	1
0	36073	1560	1
0	36176	1564	1
0	36278	1568	1
0	36381	1572	1
0	36483	1576	1
0	36534	1580	1
0	36636	1584	1
0	36739	1588	1
0	36844	1592	1
0	36946	1596	1
0	36997	1600	1
0	37098	1604	1
0	37201	1608	1
0	37303	1612	1
0	37406	1616	1
0	37457	1620	1
0	37560	1624	1
0	37661	1628	1
0	37763	1632	1
0	37868	1636	1
0	37919	1640	1
0	38020	1644	1
0	38124	1648	1
0	38228	1652	1
0	38330	1656	1
0	38381	1660	1
0	38483	1664	1
0	38587	1668	1
0	38690	1672	1
0	38791	1676	1
0	38842	1680	1
0	38944	1684	1
0	39047	1688	1
0	39149	1692	1
0	39253	1696	1
0	39304	1700	1
0	39406	1704	1
0	39507	1708	1
0	39609	1712	1
0	39714	1716	1
0	39765	1720	1
0	39865	1724	1
0	39967	1728	1
0	40070	1732	1
0	40175	1736	1
0	40226	1740	1
0	40328	1744	1
0	40431	1748	1
0	40533	1752	1
0	40636	1756	1
0	40687	1760	1
0	40790	1764	1
0	40892	1768	1
0	40997	1772	1
0	41098	1776	1
0	41149	1780	1
0	41250	1784	1
0	41355	1788	1
0	41457	1792	1
0	41560	1796	1
0	41611	1800	1
0	41712	1804	1
0	41814	1808	1
0	41918	1812	1
0	42021	1816	1
0	42072	1820	1
0	42172	1824	1
0	42275	1828	1
0	42378	1832	1
0	42480	1836	1
0	42531	1840	1
0	42633	1844	1
0	42737	1848	1
0	42841	1852	1
0	42944	1856	1
0	42995	1860	1
0	43097	1864	1
0	43198	1868	1
0	43300	1872	1
0	43402	1876	1
0	43453	1880	1
0	43554	1884	1
0	43657	1888	1
0	43761	1892	1
0	43864	1896	1
0	43915	1900	1
0	44015	1904	1
0	44116	1908	1
0	44219	1912	1
0	44321	1916	1
0	44372	1920	1
0	44474	1924	1
0	44580	1928	1
0	44682	1932	1
0	44784	1936	1
0	44835	1940	1
0	44937	1944	1
0	45038	1948	1
0	45140	1952	1
0	45242	1956	1
0	45293	1960	1
0	45394	1964	1
0	45499	1968	1
0	45601	1972	1
0	45704	1976	1
0	45755	1980	1
0	45860	1984	1
0	45961	1988	1
0	46063	1992	1
0	46166	1996	1
0	46217	2000	1
0	46320	2004	1
0	46421	2008	1
0	46524	2012	1
0	46627	2016	1
0	46678	2020	1
0	46778	2024	1
0	46880	2028	1
0	46983	2032	1
0	47086	2036	1
0	47137	2040	1
0	47240	2044	1
0	47341	2048	1
0	47445	2052	1
0	47546	2056	1
0	47597	2060	1
0	47698	2064	1
0	47802	2068	1
0	47903	2072	1
0	48005	2076	1
0	48056	2080	1
0	48158	2084	1
0	48261	2088	1
0	48367	2092	1
0	48470	2096	1
0	48521	2100	1
0	48621	2104	1
0	48724	2108	1
0	48827	2112	1
0	48929	2116	1
0	48980	2120	1
0	49083	2124	1
0	49186	2128	1
0	49287	2132	1
0	49389	2136	1
0	49440	2140	1
0	49542	2144	1
0	49644	2148	1
0	49746	2152	1
0	49848	2156	1
0	49899	2160	1
0	50002	2164	1
0	50104	2168	1
0	50209	2172	1
0	50310	2176	1
0	50361	2180	1
0	50461	2184	1
0	50563	2188	1
0	50667	2192	1
0	50769	2196	1
0	50820	2200	1
0	50922	2204	1
0	51026	2208	1
0	51130	2212	1
0	51232	2216	1
0	51283	2220	1
0	51387	2224	1
0	51489	2228	1
0	51592	2232	1
0	51695	2236	1
0	51746	2240	1
0	51850	2244	1
0	51952	2248	1
0	52057	2252	1
0	52158	2256	1
0	52209	2260	1
0	52312	2264	1
0	52415	2268	1
0	52517	2272	1
0	52623	2276	1
0	52674	2280	1
0	52775	2284	1
0	52878	2288	1
0	52983	2292	1
0	53085	2296	1
0	53136	2300	1
0	53237	2304	1
0	53339	2308	1
0	53443	2312	1
0	53546	2316	1
0	53597	2320	1
0	53697	2324	1
0	53799	2328	1
0	53905	2332	1
0	54008	2336	1
0	54059	2340	1
0	54159	2344	1
0	54261	2348	1
0	54364	2352	1
0	54466	2356	1
0	54517	2360	1
0	54619	2364	1
0	54722	2368	1
0	54825	2372	1
0	54926	2376	1
0	54977	2380	1
0	55077	2384	1
0	55179	2388	1
0	55284	2392	1
0	55386	2396	1
0	55437	2400	1
0	55538	2404	1
0	55639	2408	1
0	55740	2412	1
0	55843	2416	1
0	55894	2420	1
0	55998	2424	1
0	56099	2428	1
0	56200	2432	1
0	56303	2436	1
0	56354	2440	1
0	56454	2444	1
0	56556	2448	1
0	56658	2452	1
0	56759	2456	1
0	56810	2460	1
0	56912	2464	1
0	57014	2468	1
0	57118	2472	1
0	57219	2476	1
0	57270	2480	1
0	57370	2484	1
0	57472	2488	1
0	57575	2492	1
0	57678	2496	1
0	57729	2500	1
0	57833	2504	1
0	57935	2508	1
0	58037	2512	1
0	58139	2516	1
0	58190	2520	1
0	58293	2524	1
0	58395	2528	1
0	58498	2532	1
0	58602	2536	1
0	58653	2540	1
0	58753	2544	1
0	58854	2548	1
0	58958	2552	1
0	59059	2556	1
0	59110	2560	1
0	59211	2564	1
0	59313	2568	1
0	59415	2572	1
0	59518	2576	1
0	59569	2580	1
0	59672	2584	1
0	59773	2588	1
0	59876	2592	1
0	59978	2596	1
0	60029	2600	1
0	60132	2604	1
0	60233	2608	1
0	60336	2612	1
0	60439	2616	1
0	60490	2620	1
0	60591	2624	1
0	60693	2628	1
0	60794	2632	1
0	60897	2636	1
0	60948	2640	1
0	61049	2644	1
0	61152	2648	1
0	61255	2652	1
0	61358	2656	1
0	61409	2660	1
0	61512	2664	1
0	61614	2668	1
0	61718	2672	1
0	61821	2676	1
0	61872	2680	1
0	61973	2684	1
0	62077	2688	1
0	62178	2692	1
0	62281	2696	1
0	62332	2700	1
0	62433	2704	1
0	62535	2708	1
0	62637	2712	1
0	62741	2716	1
0	62792	2720	1
0	62894	2724	1
0	62996	2728	1
0	63101	2732	1
0	63202	2736	1
0	63253	2740	1
0	63353	2744	1
0	63455	2748	1
0	63558	2752	1
0	63664	2756	1
0	63715	2760	1
0	63817	2764	1
0	63918	2768	1
0	64020	2772	1
0	64122	2776	1
0	64173	2780	1
0	64274	2784	1
0	64378	2788	1
0	64481	2792	1
0	64582	2796	1
0	64633	2800	1
0	64733	2804	1
0	64837	2808	1
0	64938	2812	1
0	65039	2816	1
0	65090	2820	1
0	65194	2824	1
0	65297	2828	1
0	65398	2832	1
0	65501	2836	1
0	65552	2840	1
0	65653	2844	1
0	65755	2848	1
0	65858	2852	1
0	65960	2856	1
0	66011	2860	1
0	66116	2864	1
0	66218	2868	1
0	66322	2872	1
0	66425	2876	1
0	66476	2880	1
0	66576	2884	1
0	66677	2888	1
0	66779	2892	1
0	66884	2896	1
0	66935	2900	1
0	67036	2904	1
0	67139	2908	1
0	67243	2912	1
0	67345	2916	1
0	67396	2920	1
0	67498	2924	1
0	67602	2928	1
0	67705	2932	1
0	67806	2936	1
0	67857	2940	1
0	67957	2944	1
0	68059	2948	1
0	68162	2952	1
0	68265	2956	1
0	68316	2960	1
0	68420	2964	1
0	68523	2968	1
0	68625	2972	1
0	68729	2976	1
0	68780	2980	1
0	68881	2984	1
0	68986	2988	1
0	69088	2992	1
0	69192	2996	1
0	69243	3000	1
0	69343	3004	1
0	69445	3008	1
0	69547	3012	1
0	69652	3016	1
0	69703	3020	1
0	69803	3024	1
0	69905	3028	1
0	70008	3032	1
0	70111	3036	1
0	70162	3040	1
0	70267	3044	1
0	70369	3048	1
0	70471	3052	1
0	70573	3056	1
0	70624	3060	1
0	70727	3064	1
0	70831	3068	1
0	70932	3072	1
0	71033	3076	1
0	71084	3080	1
0	71186	3084	1
0	71288	3088	1
0	71391	3092	1
0	71495	3096	1
0	71546	3100	1
0	71648	3104	1
0	71749	3108	1
0	71851	3112	1
0	71955	3116	1
0	72006	3120	1
0	72107	3124	1
0	72211	3128	1
0	72312	3132	1
0	72413	3136	1
0	72464	3140	1
0	72564	3144	1
0	72667	3148	1
0	72770	3152	1
0	72871	3156	1
0	72922	3160	1
0	73022	3164	1
0	73123	3168	1
0	73225	3172	1
0	73330	3176	1
0	73381	3180	1
0	73481	3184	1
0	73584	3188	1
0	73686	3192	1
0	73789	3196	1
0	73840	3200	1
0	73942	3204	1
0	74046	3208	1
0	74149	3212	1
0	74252	3216	1
0	74303	3220	1
0	74405	3224	1
0	74506	3228	1
0	74608	3232	1
0	74711	3236	1
0	74762	3240	1
0	74865	3244	1
0	74966	3248	1
0	75067	3252	1
0	75168	3256	1
0	75219	3260	1
0	75320	3264	1
0	75422	3268	1
0	75524	3272	1
0	75629	3276	1
0	75680	3280	1
0	75781	3284	1
0	75885	3288	1
0	75986	3292	1
0	76088	3296	1
0	76139	3300	1
0	76240	3304	1
0	76341	3308	1
0	76443	3312	1
0	76548	3316	1
0	76599	3320	1
0	76701	3324	1
0	76804	3328	1
0	76907	3332	1
0	77009	3336	1
0	77060	3340	1
0	77162	3344	1
0	77267	3348	1
0	77369	3352	1
0	77472	3356	1
0	77523	3360	1
0	77628	3364	1
0	77729	3368	1
0	77832	3372	1
0	77935	3376	1
0	77986	3380	1
0	78086	3384	1
0	78188	3388	1
0	78291	3392	1
0	78393	3396	1
0	78444	3400	1
0	78546	3404	1
0	78647	3408	1
0	78749	3412	1
0	78854	3416	1
0	78905	3420	1
0	79005	3424	1
0	79107	3428	1
0	79211	3432	1
0	79313	3436	1
0	79364	3440	1
0	79467	3444	1
0	79569	3448	1
0	79674	3452	1
0	79775	3456	1
0	79826	3460	1
0	79928	3464	1
0	80031	3468	1
0	80132	3472	1
0	80234	3476	1
0	80285	3480	1
0	80388	3484	1
0	80490	3488	1
0	80594	3492	1
0	80696	3496	1
0	80747	3500	1
0	80850	3504	1
0	80954	3508	1
0	81055	3512	1
0	81157	3516	1
0	81208	3520	1
0	81311	3524	1
0	81414	3528	1
0	81515	3532	1
0	81617	3536	1
0	81668	3540	1
0	81772	3544	1
0	81874	3548	1
0	81977	3552	1
0	82080	3556	1
0	82131	3560	1
0	82233	3564	1
0	82337	3568	1
0	82438	3572	1
0	82541	3576	1
0	82592	3580	1
0	82693	3584	1
0	82797	3588	1
0	82900	3592	1
0	83003	3596	1
0	83054	3600	1
1	2	4	1
1	121	8	1
1	235	12	1
1	347	16	1
1	398	20	1
1	504	24	1
1	607	28	1
1	717	32	1
1	826	36	1
1	877	40	1
1	982	44	1
1	1090	48	1
1	1200	52	1
1	1306	56	1
1	1357	60	1
1	1463	64	1
1	1567	68	1
1	1674	72	1
1	1781	76	1
1	1832	80	1
1	1937	84	1
1	2041	88	1
1	2151	92	1
1	2257	96	1
1	2308	100	1
1	2415	104	1
1	2518	108	1
1	2623	112	1
1	2726	116	1
1	2777	120	1
1	2884	124	1
1	2989	128	1
1	3094	132	1
1	3197	136	1
1	3248	140	1
1	3351	144	1
1	3457	148	1
1	3561	152	1
1	3669	156	1
1	3720	160	1
1	3824	164	1
1	3929	168	1
1	4033	172	1
1	4136	176	1
1	4187	180	1
1	4289	184	1
1	4391	188	1
1	4495	192	1
1	4600	196	1
1	4651	200	1
1	4752	204	1
1	4858	208	1
1	4962	212	1
1	5065	216	1
1	5116	220	1
1	5220	224	1
1	5322	228	1
1	5424	232	1
1	5527	236	1
1	5578	240	1
1	5682	244	1
1	5784	248	1
1	5891	252	1
1	5995	256	1
1	6046	260	1
1	6146	264	1
1	6250	268	1
1	6351	272	1
1	6455	276	1
1	6506	280	1
1	6609	284	1
1	6711	288	1
1	6820	292	1
1	6924	296	1
1	6975	300	1
1	7076	304	1
1	7179	308	1
1	7285	312	1
1	7388	316	1
1	7439	320	1
1	7540	324	1
1	7644	328	1
1	7745	332	1
1	7849	336	1
1	7900	340	1
1	8002	344	1
1	8105	348	1
1	8207	352	1
1	8314	356	1
1	8365	360	1
1	8466	364	1
1	8569	368	1
1	8675	372	1
1	8777	376	1
1	8828	380	1
1	8932	384	1
1	9033	388	1
1	9136	392	1
1	9240	396	1
1	9291	400	1
1	9394	404	1
1	9496	408	1
1	9598	412	1
1	9701	416	1
1	9752	420	1
1	9855	424	1
1	9957	428	1
1	10064	432	1
1	10168	436	1
1	10219	440	1
1	10320	444	1
1	10425	448	1
1	10527	452	1
1	10631	456	1
1	10682	460	1
1	10784	464	1
1	10888	468	1
1	10989	472	1
1	11092	476	1
1	11143	480	1
1	11246	484	1
1	11349	488	1
1	11450	492	1
1	11553	496	1
1	11604	500	1
1	11705	504	1
1	11809	508	1
1	11912	512	1
1	12015	516	1
1	12066	520	1
1	12169	524	1
1	12273	528	1
1	12375	532	1
1	12478	536	1
1	12529	540	1
1	12634	544	1
1	12739	548	1
1	12842	552	1
1	12944	556	1
1	12995	560	1
1	13098	564	1
1	13202	568	1
1	13305	572	1
1	13408	576	1
1	13459	580	1
1	13559	584	1
1	13661	588	1
1	13767	592	1
1	13872	596	1
1	13923	600	1
1	14024	604	1
1	14130	608	1
1	14233	612	1
1	14335	616	1
1	14386	620	1
1	14487	624	1
1	14589	628	1
1	14693	632	1
1	14794	636	1
1	14845	640	1
1	14949	644	1
1	15051	648	1
1	15154	652	1
1	15257	656	1
1	15308	660	1
1	15412	664	1
1	15514	668	1
1	15618	672	1
1	15720	676	1
1	15771	680	1
1	15872	684	1
1	15975	688	1
1	16077	692	1
1	16181	696	1
1	16232	700	1
1	16333	704	1
1	16437	708	1
1	16540	712	1
1	16642	716	1
1	16693	720	1
1	16797	724	1
1	16899	728	1
1	17004	732	1
1	17109	736	1
1	17160	740	1
1	17262	744	1
1	17365	748	1
1	17467	752	1
1	17569	756	1
1	17620	760	1
1	17722	764	1
1	17825	768	1
1	17928	772	1
1	18029	776	1
1	18080	780	1
1	18180	784	1
1	18282	788	1
1	18390	792	1
1	18492	796	1
1	18543	800	1
1	18646	804	1
1	18748	808	1
1	18853	812	1
1	18956	816	1
1	19007	820	1
1	19107	824	1
1	19208	828	1
1	19310	832	1
1	19413	836	1
1	19464	840	1
1	19568	844	1
1	19671	848	1
1	19775	852	1
1	19876	856	1
1	19927	860	1
1	20028	864	1
1	20134	868	1
1	20236	872	1
1	20340	876	1
1	20391	880	1
1	20496	884	1
1	20600	888	1
1	20703	892	1
1	20805	896	1
1	20856	900	1
1	20958	904	1
1	21060	908	1
1	21166	912	1
1	21268	916	1
1	21319	920	1
1	21420	924	1
1	21522	928	1
1	21628	932	1
1	21729	936	1
1	21780	940	1
1	21881	944	1
1	21988	948	1
1	22090	952	1
1	22193	956	1
1	22244	960	1
1	22349	964	1
1	22450	968	1
1	22552	972	1
1	22657	976	1
1	22708	980	1
1	22810	984	1
1	22912	988	1
1	23015	992	1
1	23119	996	1
1	23170	1000	1
1	23272	1004	1
1	23375	1008	1
1	23477	1012	1
1	23581	1016	1
1	23632	1020	1
1	23733	1024	1
1	23838	1028	1
1	23940	1032	1
1	24042	1036	1
1	24093	1040	1
1	24196	1044	1
1	24301	1048	1
1	24403	1052	1
1	24506	1056	1
1	24557	1060	1
1	24659	1064	1
1	24763	1068	1
1	24867	1072	1
1	24968	1076	1
1	25019	1080	1
1	25120	1084	1
1	25224	1088	1
1	25326	1092	1
1	25430	1096	1
1	25481	1100	1
1	25581	1104	1
1	25682	1108	1
1	25784	1112	1
1	25889	1116	1
1	25940	1120	1
1	26044	1124	1
1	26148	1128	1
1	26249	1132	1
1	26351	1136	1
1	26402	1140	1
1	26503	1144	1
1	26606	1148	1
1	26707	1152	1
1	26809	1156	1
1	26860	1160	1
1	26963	1164	1
1	27064	1168	1
1	27166	1172	1
1	27274	1176	1
1	27325	1180	1
1	27426	1184	1
1	27530	1188	1
1	27631	1192	1
1	27732	1196	1
1	27783	1200	1
1	27884	1204	1
1	27987	1208	1
1	28090	1212	1
1	28193	1216	1
1	28244	1220	1
1	28347	1224	1
1	28449	1228	1
1	28552	1232	1
1	28655	1236	1
1	28706	1240	1
1	28808	1244	1
1	28912	1248	1
1	29016	1252	1
1	29118	1256	1
1	29169	1260	1
1	29270	1264	1
1	29373	1268	1
1	29478	1272	1
1	29579	1276	1
1	29630	1280	1
1	29731	1284	1
1	29833	1288	1
1	29937	1292	1
1	30040	1296	1
1	30091	1300	1
1	30193	1304	1
1	30294	1308	1
1	30397	1312	1
1	30500	1316	1
1	30551	1320	1
1	30651	1324	1
1	30754	1328	1
1	30856	1332	1
1	30961	1336	1
1	31012	1340	1
1	31112	1344	1
1	31213	1348	1
1	31318	1352	1
1	31419	1356	1
1	31470	1360	1
1	31571	1364	1
1	31674	1368	1
1	31778	1372	1
1	31880	1376	1
1	31931	1380	1
1	32035	1384	1
1	32138	1388	1
1	32240	1392	1
1	32343	1396	1
1	32394	1400	1
1	32500	1404	1
1	32602	1408	1
1	32707	1412	1
1	32809	1416	1
1	32860	1420	1
1	32965	1424	1
1	33068	1428	1
1	33169	1432	1
1	33272	1436	1
1	33323	1440	1
1	33425	1444	1
1	33528	1448	1
1	33629	1452	1
1	33730	1456	1
1	33781	1460	1
1	33881	1464	1
1	33982	1468	1
1	34083	1472	1
1	34187	1476	1
1	34238	1480	1
1	34338	1484	1
1	34441	1488	1
1	34545	1492	1
1	34648	1496	1
1	34699	1500	1
1	34801	1504	1
1	34902	1508	1
1	35003	1512	1
1	35104	1516	1
1	35155	1520	1
1	35255	1524	1
1	35357	1528	1
1	35459	1532	1
1	35561	1536	1
1	35612	1540	1
1	35714	1544	1
1	35817	1548	1
1	35921	1552	1
1	36023	1556	1
1	36074	1560	1
1	36177	1564	1
1	36279	1568	1
1	36382	1572	1
1	36484	1576	1
1	36535	1580	1
1	36637	1584	1
1	36740	1588	1
1	36845	1592	1
1	36947	1596	1
1	36998	1600	1
1	37099	1604	1
1	37202	1608	1
1	37304	1612	1
1	37407	1616	1
1	37458	1620	1
1	37561	1624	1
1	37662	1628	1
1	37764	1632	1
1	37869	1636	1
1	37920	1640	1
1	38021	1644	1
1	38125	1648	1
1	38229	1652	1
1	38331	1656	1
1	38382	1660	1
1	38484	1664	1
1	38588	1668	1
1	38691	1672	1
1	38792	1676	1
1	38843	1680	1
1	38945	1684	1
1	39048	1688	1
1	39150	1692	1
1	39254	1696	1
1	39305	1700	1
1	39407	1704	1
1	39508	1708	1
1	39610	1712	1
1	39715	1716	1
1	39766	1720	1
1	39866	1724	1
1	39968	1728	1
1	40071	1732	1
1	40176	1736	1
1	40227	1740	1
1	40329	1744	1
1	40432	1748	1
1	40534	1752	1
1	40637	1756	1
1	40688	1760	1
1	40791	1764	1
1	40893	1768	1
1	40998	1772	1
1	41099	1776	1
1	41150	1780	1
1	41251	1784	1
1	41356	1788	1
1	41458	1792	1
1	41561	1796	1
1	41612	1800	1
1	41713	1804	1
1	41815	1808	1
1	41919	1812	1
1	42022	1816	1
1	42073	1820	1
1	42173	1824	1
1	42276	1828	1
1	42379	1832	1
1	42481	1836	1
1	42532	1840	1
1	42634	1844	1
1	42738	1848	1
1	42842	1852	1
1	42945	1856	1
1	42996	1860	1
1	43098	1864	1
1	43199	1868	1
1	43301	1872	1
1	43403	1876	1
1	43454	1880	1
1	43555	1884	1
1	43658	1888	1
1	43762	1892	1
1	43865	1896	1
1	43916	1900	1
1	44016	1904	1
1	44117	1908	1
1	44220	1912	1
1	44322	1916	1
1	44373	1920	1
1	44475	1924	1
1	44581	1928	1
1	44683	1932	1
1	44785	1936	1
1	44836	1940	1
1	44938	1944	1
1	45039	1948	1
1	45141	1952	1
1	45243	1956	1
1	45294	1960	1
1	45395	1964	1
1	45500	1968	1
1	45602	1972	1
1	45705	1976	1
1	45756	1980	1
1	45861	1984	1
1	45962	1988	1
1	46064	1992	1
1	46167	1996	1
1	46218	2000	1
1	46321	2004	1
1	46422	2008	1
1	46525	2012	1
1	46628	2016	1
1	46679	2020	1
1	46779	2024	1
1	46881	2028	1
1	46984	2032	1
1	47087	2036	1
1	47138	2040	1
1	47241	2044	1
1	47342	2048	1
1	47446	2052	1
1	47547	2056	1
1	47598	2060	1
1	47699	2064	1
1	47803	2068	1
1	47904	2072	1
1	48006	2076	1
1	48057	2080	1
1	48159	2084	1
1	48262	2088	1
1	48368	2092	1
1	48471	2096	1
1	48522	2100	1
1	48622	2104	1
1	48725	2108	1
1	48828	2112	1
1	48930	2116	1
1	48981	2120	1
1	49084	2124	1
1	49187	2128	1
1	49288	2132	1
1	49390	2136	1
1	49441	2140	1
1	49543	2144	1
1	49645	2148	1
1	49747	2152	1
1	49849	2156	1
1	49900	2160	1
1	50003	2164	1
1	50105	2168	1
1	50210	2172	1
1	50311	2176	1
1	50362	2180	1
1	50462	2184	1
1	50564	2188	1
1	50668	2192	1
1	50770	2196	1
1	50821	2200	1
1	50923	2204	1
1	51027	2208	1
1	51131	2212	1
1	51233	2216	1
1	51284	2220	1
1	51388	2224	1
1	51490	2228	1
1	51593	2232	1
1	51696	2236	1
1	51747	2240	1
1	51851	2244	1
1	51953	2248	1
1	52058	2252	1
1	52159	2256	1
1	52210	2260	1
1	52313	2264	1
1	52416	2268	1
1	52518	2272	1
1	52624	2276	1
1	52675	2280	1
1	52776	2284	1
1	52879	2288	1
1	52984	2292	1
1	53086	2296	1
1	53137	2300	1
1	53238	2304	1
1	53340	2308	1
1	53444	2312	1
1	53547	2316	1
1	53598	2320	1
1	53698	2324	1
1	53800	2328	1
1	53906	2332	1
1	54009	2336	1
1	54060	2340	1
1	54160	2344	1
1	54262	2348	1
1	54365	2352	1
1	54467	2356	1
1	54518	2360	1
1	54620	2364	1
1	54723	2368	1
1	54826	2372	1
1	54927	2376	1
1	54978	2380	1
1	55078	2384	1
1	55180	2388	1
1	55285	2392	1
1	55387	2396	1
1	55438	2400	1
1	55539	2404	1
1	55640	2408	1
1	55741	2412	1
1	55844	2416	1
1	55895	2420	1
1	55999	2424	1
1	56100	2428	1
1	56201	2432	1
1	56304	2436	1
1	56355	2440	1
1	56455	2444	1
1	56557	2448	1
1	56659	2452	1
1	56760	2456	1
1	56811	2460	1
1	56913	2464	1
1	57015	2468	1
1	57119	2472	1
1	57220	2476	1
1	57271	2480	1
1	57371	2484	1
1	57473	2488	1
1	57576	2492	1
1	57679	2496	1
1	57730	2500	1
1	57834	2504	1
1	57936	2508	1
1	58038	2512	1
1	58140	2516	1
1	58191	2520	1
1	58294	2524	1
1	58396	2528	1
1	58499	2532	1
1	58603	2536	1
1	58654	2540	1
1	58754	2544	1
1	58855	2548	1
1	58959	2552	1
1	59060	2556	1
1	59111	2560	1
1	59212	2564	1
1	59314	2568	1
1	59416	2572	1
1	59519	2576	1
1	59570	2580	1
1	59673	2584	1
1	59774	2588	1
1	59877	2592	1
1	59979	2596	1
1	60030	2600	1
1	60133	2604	1
1	60234	2608	1
1	60337	2612	1
1	60440	2616	1
1	60491	2620	1
1	60592	2624	1
1	60694	2628	1
1	60795	2632	1
1	60898	2636	1
1	60949	2640	1
1	61050	2644	1
1	61153	2648	1
1	61256	2652	1
1	61359	2656	1
1	61410	2660	1
1	61513	2664	1
1	61615	2668	1
1	61719	2672	1
1	61822	2676	1
1	61873	2680	1
1	61974	2684	1
1	62078	2688	1
1	62179	2692	1
1	62282	2696	1
1	62333	2700	1
1	62434	2704	1
1	62536	2708	1
1	62638	2712	1
1	62742	2716	1
1	62793	2720	1
1	62895	2724	1
1	62997	2728	1
1	63102	2732	1
1	63203	2736	1
1	63254	2740	1
1	63354	2744	1
1	63456	2748	1
1	63559	2752	1
1	63665	2756	1
1	63716	2760	1
1	63818	2764	1
1	63919	2768	1
1	64021	2772	1
1	64123	2776	1
1	64174	2780	1
1	64275	2784	1
1	64379	2788	1
1	64482	2792	1
1	64583	2796	1
1	64634	2800	1
1	64734	2804	1
1	64838	2808	1
1	64939	2812	1
1	65040	2816	1
1	65091	2820	1
1	65195	2824	1
1	65298	2828	1
1	65399	2832	1
1	65502	2836	1
1	65553	2840	1
1	65654	2844	1
1	65756	2848	1
1	65859	2852	1
1	65961	2856	1
1	66012	2860	1
1	66117	2864	1
1	66219	2868	1
1	66323	2872	1
1	66426	2876	1
1	66477	2880	1
1	66577	2884	1
1	66678	2888	1
1	66780	2892	1
1	66885	2896	1
1	66936	2900	1
1	67037	2904	1
1	67140	2908	1
1	67244	2912	1
1	67346	2916	1
1	67397	2920	1
1	67499	2924	1
1	67603	2928	1
1	67706	2932	1
1	67807	2936	1
1	67858	2940	1
1	67958	2944	1
1	68060	2948	1
1	68163	2952	1
1	68266	2956	1
1	68317	2960	1
1	68421	2964	1
1	68524	2968	1
1	68626	2972	1
1	68730	2976	1
1	68781	2980	1
1	68882	2984	1
1	68987	2988	1
1	69089	2992	1
1	69193	2996	1
1	69244	3000	1
1	69344	3004	1
1	69446	3008	1
1	69548	3012	1
1	69653	3016	1
1	69704	3020	1
1	69804	3024	1
1	69906	3028	1
1	70009	3032	1
1	70112	3036	1
1	70163	3040	1
1	70268	3044	1
1	70370	3048	1
1	70472	3052	1
1	70574	3056	1
1	70625	3060	1
1	70728	3064	1
1	70832	3068	1
1	70933	3072	1
1	71034	3076	1
1	71085	3080	1
1	71187	3084	1
1	71289	3088	1
1	71392	3092	1
1	71496	3096	1
1	71547	3100	1
1	71649	3104	1
1	71750	3108	1
1	71852	3112	1
1	71956	3116	1
1	72007	3120	1
1	72108	3124	1
1	72212	3128	1
1	72313	3132	1
1	72414	3136	1
1	72465	3140	1
1	72565	3144	1
1	72668	3148	1
1	72771	3152	1
1	72872	3156	1
1	72923	3160	1
1	73023	3164	1
1	73124	3168	1
1	73226	3172	1
1	73331	3176	1
1	73382	3180	1
1	73482	3184	1
1	73585	3188	1
1	73687	3192	1
1	73790	3196	1
1	73841	3200	1
1	73943	3204	1
1	74047	3208	1
1	74150	3212	1
1	74253	3216	1
1	74304	3220	1
1	74406	3224	1
1	74507	3228	1
1	74609	3232	1
1	74712	3236	1
1	74763	3240	1
1	74866	3244	1
1	74967	3248	1
1	75068	3252	1
1	75169	3256	1
1	75220	3260	1
1	75321	3264	1
1	75423	3268	1
1	75525	3272	1
1	75630	3276	1
1	75681	3280	1
1	75782	3284	1
1	75886	3288	1
1	75987	3292	1
1	76089	3296	1
1	76140	3300	1
1	76241	3304	1
1	76342	3308	1
1	76444	3312	1
1	76549	3316	1
1	76600	3320	1
1	76702	3324	1
1	76805	3328	1
1	76908	3332	1
1	77010	3336	1
1	77061	3340	1
1	77163	3344	1
1	77268	3348	1
1	77370	3352	1
1	77473	3356	1
1	77524	3360	1
1	77629	3364	1
1	77730	3368	1
1	77833	3372	1
1	77936	3376	1
1	77987	3380	1
1	78087	3384	1
1	78189	3388	1
1	78292	3392	1
1	78394	3396	1
1	78445	3400	1
1	78547	3404	1
1	78648	3408	1
1	78750	3412	1
1	78855	3416	1
1	78906	3420	1
1	79006	3424	1
1	79108	3428	1
1	79212	3432	1
1	79314	3436	1
1	79365	3440	1
1	79468	3444	1
1	79570	3448	1
1	79675	3452	1
1	79776	3456	1
1	79827	3460	1
1	79929	3464	1
1	80032	3468	1
1	80133	3472	1
1	80235	3476	1
1	80286	3480	1
1	80389	3484	1
1	80491	3488	1
1	80595	3492	1
1	80697	3496	1
1	80748	3500	1
1	80851	3504	1
1	80955	3508	1
1	81056	3512	1
1	81158	3516	1
1	81209	3520	1
1	81312	3524	1
1	81415	3528	1
1	81516	3532	1
1	81618	3536	1
1	81669	3540	1
1	81773	3544	1
1	81875	3548	1
1	81978	3552	1
1	82081	3556	1
1	82132	3560	1
1	82234	3564	1
1	82338	3568	1
1	82439	3572	1
1	82542	3576	1
1	82593	3580	1
1	82694	3584	1
1	82798	3588	1
1	82901	3592	1
1	83004	3596	1
1	83055	3600	1
2	3	4	1
2	122	8	1
2	236	12	1
2	348	16	1
2	399	20	1
2	505	24	1
2	608	28	1
2	718	32	1
2	827	36	1
2	878	40	1
2	983	44	1
2	1091	48	1
2	1201	52	1
2	1307	56	1
2	1358	60	1
2	1464	64	1
2	1568	68	1
2	1675	72	1
2	1782	76	1
2	1833	80	1
2	1938	84	1
2	2042	88	1
2	2152	92	1
2	2258	96	1
2	2309	100	1
2	2416	104	1
2	2519	108	1
2	2624	112	1
2	2727	116	1
2	2778	120	1
2	2885	124	1
2	2990	128	1
2	3095	132	1
2	3198	136	1
2	3249	140	1
2	3352	144	1
2	3458	148	1
2	3562	152	1
2	3670	156	1
2	3721	160	1
2	3825	164	1
2	3930	168	1
2	4034	172	1
2	4137	176	1
2	4188	180	1
2	4290	184	1
2	4392	188	1
2	4496	192	1
2	4601	196	1
2	4652	200	1
2	4753	204	1
2	4859	208	1
2	4963	212	1
2	5066	216	1
2	5117	220	1
2	5221	224	1
2	5323	228	1
2	5425	232	1
2	5528	236	1
2	5579	240	1
2	5683	244	1
2	5785	248	1
2	5892	252	1
2	5996	256	1
2	6047	260	1
2	6147	264	1
2	6251	268	1
2	6352	272	1
2	6456	276	1
2	6507	280	1
2	6610	284	1
2	6712	288	1
2	6821	292	1
2	6925	296	1
2	6976	300	1
2	7077	304	1
2	7180	308	1
2	7286	312	1
2	7389	316	1
2	7440	320	1
2	7541	324	1
2	7645	328	1
2	7746	332	1
2	7850	336	1
2	7901	340	1
2	8003	344	1
2	8106	348	1
2	8208	352	1
2	8315	356	1
2	8366	360	1
2	8467	364	1
2	8570	368	1
2	8676	372	1
2	8778	376	1
2	8829	380	1
2	8933	384	1
2	9034	388	1
2	9137	392	1
2	9241	396	1
2	9292	400	1
2	9395	404	1
2	9497	408	1
2	9599	412	1
2	9702	416	1
2	9753	420	1
2	9856	424	1
2	9958	428	1
2	10065	432	1
2	10169	436	1
2	10220	440	1
2	10321	444	1
2	10426	448	1
2	10528	452	1
2	10632	456	1
2	10683	460	1
2	10785	464	1
2	10889	468	1
2	10990	472	1
2	11093	476	1
2	11144	480	1
2	11247	484	1
2	11350	488	1
2	11451	492	1
2	11554	496	1
2	11605	500	1
2	11706	504	1
2	11810	508	1
2	11913	512	1
2	12016	516	1
2	12067	520	1
2	12170	524	1
2	12274	528	1
2	12376	532	1
2	12479	536	1
2	12530	540	1
2	12635	544	1
2	12740	548	1
2	12843	552	1
2	12945	556	1
2	12996	560	1
2	13099	564	1
2	13203	568	1
2	13306	572	1
2	13409	576	1
2	13460	580	1
2	13560	584	1
2	13662	588	1
2	13768	592	1
2	13873	596	1
2	13924	600	1
2	14025	604	1
2	14131	608	1
2	14234	612	1
2	14336	616	1
2	14387	620	1
2	14488	624	1
2	14590	628	1
2	14694	632	1
2	14795	636	1
2	14846	640	1
2	14950	644	1
2	15052	648	1
2	15155	652	1
2	15258	656	1
2	15309	660	1
2	15413	664	1
2	15515	668	1
2	15619	672	1
2	15721	676	1
2	15772	680	1
2	15873	684	1
2	15976	688	1
2	16078	692	1
2	16182	696	1
2	16233	700	1
2	16334	704	1
2	16438	708	1
2	16541	712	1
2	16643	716	1
2	16694	720	1
2	16798	724	1
2	16900	728	1
2	17005	732	1
2	17110	736	1
2	17161	740	1
2	17263	744	1
2	17366	748	1
2	17468	752	1
2	17570	756	1
2	17621	760	1
2	17723	764	1
2	17826	768	1
2	17929	772	1
2	18030	776	1
2	18081	780	1
2	18181	784	1
2	18283	788	1
2	18391	792	1
2	18493	796	1
2	18544	800	1
2	18647	804	1
2	18749	808	1
2	18854	812	1
2	18957	816	1
2	19008	820	1
2	19108	824	1
2	19209	828	1
2	19311	832	1
2	19414	836	1
2	19465	840	1
2	19569	844	1
2	19672	848	1
2	19776	852	1
2	19877	856	1
2	19928	860	1
2	20029	864	1
2	20135	868	1
2	20237	872	1
2	20341	876	1
2	20392	880	1
2	20497	884	1
2	20601	888	1
2	20704	892	1
2	20806	896	1
2	20857	900	1
2	20959	904	1
2	21061	908	1
2	21167	912	1
2	21269	916	1
2	21320	920	1
2	21421	924	1
2	21523	928	1
2	21629	932	1
2	21730	936	1
2	21781	940	1
2	21882	944	1
2	21989	948	1
2	22091	952	1
2	22194	956	1
2	22245	960	1
2	22350	964	1
2	22451	968	1
2	22553	972	1
2	22658	976	1
2	22709	980	1
2	22811	984	1
2	22913	988	1
2	23016	992	1
2	23120	996	1
2	23171	1000	1
2	23273	1004	1
2	23376	1008	1
2	23478	1012	1
2	23582	1016	1
2	23633	1020	1
2	23734	1024	1
2	23839	1028	1
2	23941	1032	1
2	24043	1036	1
2	24094	1040	1
2	24197	1044	1
2	24302	1048	1
2	24404	1052	1
2	24507	1056	1
2	24558	1060	1
2	24660	1064	1
2	24764	1068	1
2	24868	1072	1
2	24969	1076	1
2	25020	1080	1
2	25121	1084	1
2	25225	1088	1
2	25327	1092	1
2	25431	1096	1
2	25482	1100	1
2	25582	1104	1
2	25683	1108	1
2	25785	1112	1
2	25890	1116	1
2	25941	1120	1
2	26045	1124	1
2	26149	1128	1
2	26250	1132	1
2	26352	1136	1
2	26403	1140	1
2	26504	1144	1
2	26607	1148	1
2	26708	1152	1
2	26810	1156	1
2	26861	1160	1
2	26964	1164	1
2	27065	1168	1
2	27167	1172	1
2	27275	1176	1
2	27326	1180	1
2	27427	1184	1
2	27531	1188	1
2	27632	1192	1
2	27733	1196	1
2	27784	1200	1
2	27885	1204	1
2	27988	1208	1
2	28091	1212	1
2	28194	1216	1
2	28245	1220	1
2	28348	1224	1
2	28450	1228	1
2	28553	1232	1
2	28656	1236	1
2	28707	1240	1
2	28809	1244	1
2	28913	1248	1
2	29017	1252	1
2	29119	1256	1
2	29170	1260	1
2	29271	1264	1
2	29374	1268	1
2	29479	1272	1
2	29580	1276	1
2	29631	1280	1
2	29732	1284	1
2	29834	1288	1
2	29938	1292	1
2	30041	1296	1
2	30092	1300	1
2	30194	1304	1
2	30295	1308	1
2	30398	1312	1
2	30501	1316	1
2	30552	1320	1
2	30652	1324	1
2	30755	1328	1
2	30857	1332	1
2	30962	1336	1
2	31013	1340	1
2	31113	1344	1
2	31214	1348	1
2	31319	1352	1
2	31420	1356	1
2	31471	1360	1
2	31572	1364	1
2	31675	1368	1
2	31779	1372	1
2	31881	1376	1
2	31932	1380	1
2	32036	1384	1
2	32139	1388	1
2	32241	1392	1
2	32344	1396	1
2	32395	1400	1
2	32501	1404	1
2	32603	1408	1
2	32708	1412	1
2	32810	1416	1
2	32861	1420	1
2	32966	1424	1
2	33069	1428	1
2	33170	1432	1
2	33273	1436	1
2	33324	1440	1
2	33426	1444	1
2	33529	1448	1
2	33630	1452	1
2	33731	1456	1
2	33782	1460	1
2	33882	1464	1
2	33983	1468	1
2	34084	1472	1
2	34188	1476	1
2	34239	1480	1
2	34339	1484	1
2	34442	1488	1
2	34546	1492	1
2	34649	1496	1
2	34700	1500	1
2	34802	1504	1
2	34903	1508	1
2	35004	1512	1
2	35105	1516	1
2	35156	1520	1
2	35256	1524	1
2	35358	1528	1
2	35460	1532	1
2	35562	1536	1
2	35613	1540	1
2	35715	1544	1
2	35818	1548	1
2	35922	1552	1
2	36024	1556	1
2	36075	1560	1
2	36178	1564	1
2	36280	1568	1
2	36383	1572	1
2	36485	1576	1
2	36536	1580	1
2	36638	1584	1
2	36741	1588	1
2	36846	1592	1
2	36948	1596	1
2	36999	1600	1
2	37100	1604	1
2	37203	1608	1
2	37305	1612	1
2	37408	1616	1
2	37459	1620	1
2	37562	1624	1
2	37663	1628	1
2	37765	1632	1
2	37870	1636	1
2	37921	1640	1
2	38022	1644	1
2	38126	1648	1
2	38230	1652	1
2	38332	1656	1
2	38383	1660	1
2	38485	1664	1
2	38589	1668	1
2	38692	1672	1
2	38793	1676	1
2	38844	1680	1
2	38946	1684	1
2	39049	1688	1
2	39151	1692	1
2	39255	1696	1
2	39306	1700	1
2	39408	1704	1
2	39509	1708	1
2	39611	1712	1
2	39716	1716	1
2	39767	1720	1
2	39867	1724	1
2	39969	1728	1
2	40072	1732	1
2	40177	1736	1
2	40228	1740	1
2	40330	1744	1
2	40433	1748	1
2	40535	1752	1
2	40638	1756	1
2	40689	1760	1
2	40792	1764	1
2	40894	1768	1
2	40999	1772	1
2	41100	1776	1
2	41151	1780	1
2	41252	1784	1
2	41357	1788	1
2	41459	1792	1
2	41562	1796	1
2	41613	1800	1
2	41714	1804	1
2	41816	1808	1
2	41920	1812	1
2	42023	1816	1
2	42074	1820	1
2	42174	1824	1
2	42277	1828	1
2	42380	1832	1
2	42482	1836	1
2	42533	1840	1
2	42635	1844	1
2	42739	1848	1
2	42843	1852	1
2	42946	1856	1
2	42997	1860	1
2	43099	1864	1
2	43200	1868	1
2	43302	1872	1
2	43404	1876	1
2	43455	1880	1
2	43556	1884	1
2	43659	1888	1
2	43763	1892	1
2	43866	1896	1
2	43917	1900	1
2	44017	1904	1
2	44118	1908	1
2	44221	1912	1
2	44323	1916	1
2	44374	1920	1
2	44476	1924	1
2	44582	1928	1
2	44684	1932	1
2	44786	1936	1
2	44837	1940	1
2	44939	1944	1
2	45040	1948	1
2	45142	1952	1
2	45244	1956	1
2	45295	1960	1
2	45396	1964	1
2	45501	1968	1
2	45603	1972	1
2	45706	1976	1
2	45757	1980	1
2	45862	1984	1
2	45963	1988	1
2	46065	1992	1
2	46168	1996	1
2	46219	2000	1
2	46322	2004	1
2	46423	2008	1
2	46526	2012	1
2	46629	2016	1
2	46680	2020	1
2	46780	2024	1
2	46882	2028	1
2	46985	2032	1
2	47088	2036	1
2	47139	2040	1
2	47242	2044	1
2	47343	2048	1
2	47447	2052	1
2	47548	2056	1
2	47599	2060	1
2	47700	2064	1
2	47804	2068	1
2	47905	2072	1
2	48007	2076	1
2	48058	2080	1
2	48160	2084	1
2	48263	2088	1
2	48369	2092	1
2	48472	2096	1
2	48523	2100	1
2	48623	2104	1
2	48726	2108	1
2	48829	2112	1
2	48931	2116	1
2	48982	2120	1
2	49085	2124	1
2	49188	2128	1
2	49289	2132	1
2	49391	2136	1
2	49442	2140	1
2	49544	2144	1
2	49646	2148	1
2	49748	2152	1
2	49850	2156	1
2	49901	2160	1
2	50004	2164	1
2	50106	2168	1
2	50211	2172	1
2	50312	2176	1
2	50363	2180	1
2	50463	2184	1
2	50565	2188	1
2	50669	2192	1
2	50771	2196	1
2	50822	2200	1
2	50924	2204	1
2	51028	2208	1
2	51132	2212	1
2	51234	2216	1
2	51285	2220	1
2	51389	2224	1
2	51491	2228	1
2	51594	2232	1
2	51697	2236	1
2	51748	2240	1
2	51852	2244	1
2	51954	2248	1
2	52059	2252	1
2	52160	2256	1
2	52211	2260	1
2	52314	2264	1
2	52417	2268	1
2	52519	2272	1
2	52625	2276	1
2	52676	2280	1
2	52777	2284	1
2	52880	2288	1
2	52985	2292	1
2	53087	2296	1
2	53138	2300	1
2	53239	2304	1
2	53341	2308	1
2	53445	2312	1
2	53548	2316	1
2	53599	2320	1
2	53699	2324	1
2	53801	2328	1
2	53907	2332	1
2	54010	2336	1
2	54061	2340	1
2	54161	2344	1
2	54263	2348	1
2	54366	2352	1
2	54468	2356	1
2	54519	2360	1
2	54621	2364	1
2	54724	2368	1
2	54827	2372	1
2	54928	2376	1
2	54979	2380	1
2	55079	2384	1
2	55181	2388	1
2	55286	2392	1
2	55388	2396	1
2	55439	2400	1
2	55540	2404	1
2	55641	2408	1
2	55742	2412	1
2	55845	2416	1
2	55896	2420	1
2	56000	2424	1
2	56101	2428	1
2	56202	2432	1
2	56305	2436	1
2	56356	2440	1
2	56456	2444	1
2	56558	2448	1
2	56660	2452	1
2	56761	2456	1
2	56812	2460	1
2	56914	2464	1
2	57016	2468	1
2	57120	2472	1
2	57221	2476	1
2	57272	2480	1
2	57372	2484	1
2	57474	2488	1
2	57577	2492	1
2	57680	2496	1
2	57731	2500	1
2	57835	2504	1
2	57937	2508	1
2	58039	2512	1
2	58141	2516	1
2	58192	2520	1
2	58295	2524	1
2	58397	2528	1
2	58500	2532	1
2	58604	2536	1
2	58655	2540	1
2	58755	2544	1
2	58856	2548	1
2	58960	2552	1
2	59061	2556	1
2	59112	2560	1
2	59213	2564	1
2	59315	2568	1
2	59417	2572	1
2	59520	2576	1
2	59571	2580	1
2	59674	2584	1
2	59775	2588	1
2	59878	2592	1
2	59980	2596	1
2	60031	2600	1
2	60134	2604	1
2	60235	2608	1
2	60338	2612	1
2	60441	2616	1
2	60492	2620	1
2	60593	2624	1
2	60695	2628	1
2	60796	2632	1
2	60899	2636	1
2	60950	2640	1
2	61051	2644	1
2	61154	2648	1
2	61257	2652	1
2	61360	2656	1
2	61411	2660	1
2	61514	2664	1
2	61616	2668	1
2	61720	2672	1
2	61823	2676	1
2	61874	2680	1
2	61975	2684	1
2	62079	2688	1
2	62180	2692	1
2	62283	2696	1
2	62334	2700	1
2	62435	2704	1
2	62537	2708	1
2	62639	2712	1
2	62743	2716	1
2	62794	2720	1
2	62896	2724	1
2	62998	2728	1
2	63103	2732	1
2	63204	2736	1
2	63255	2740	1
2	63355	2744	1
2	63457	2748	1
2	63560	2752	1
2	63666	2756	1
2	63717	2760	1
2	63819	2764	1
2	63920	2768	1
2	64022	2772	1
2	64124	2776	1
2	64175	2780	1
2	64276	2784	1
2	64380	2788	1
2	64483	2792	1
2	64584	2796	1
2	64635	2800	1
2	64735	2804	1
2	64839	2808	1
2	64940	2812	1
2	65041	2816	1
2	65092	2820	1
2	65196	2824	1
2	65299	2828	1
2	65400	2832	1
2	65503	2836	1
2	65554	2840	1
2	65655	2844	1
2	65757	2848	1
2	65860	2852	1
2	65962	2856	1
2	66013	2860	1
2	66118	2864	1
2	66220	2868	1
2	66324	2872	1
2	66427	2876	1
2	66478	2880	1
2	66578	2884	1
2	66679	2888	1
2	66781	2892	1
2	66886	2896	1
2	66937	2900	1
2	67038	2904	1
2	67141	2908	1
2	67245	2912	1
2	67347	2916	1
2	67398	2920	1
2	67500	2924	1
2	67604	2928	1
2	67707	2932	1
2	67808	2936	1
2	67859	2940	1
2	67959	2944	1
2	68061	2948	1
2	68164	2952	1
2	68267	2956	1
2	68318	2960	1
2	68422	2964	1
2	68525	2968	1
2	68627	2972	1
2	68731	2976	1
2	68782	2980	1
2	68883	2984	1
2	68988	2988	1
2	69090	2992	1
2	69194	2996	1
2	69245	3000	1
2	69345	3004	1
2	69447	3008	1
2	69549	3012	1
2	69654	3016	1
2	69705	3020	1
2	69805	3024	1
2	69907	3028	1
2	70010	3032	1
2	70113	3036	1
2	70164	3040	1
2	70269	3044	1
2	70371	3048	1
2	70473	3052	1
2	70575	3056	1
2	70626	3060	1
2	70729	3064	1
2	70833	3068	1
2	70934	3072	1
2	71035	3076	1
2	71086	3080	1
2	71188	3084	1
2	71290	3088	1
2	71393	3092	1
2	71497	3096	1
2	71548	3100	1
2	71650	3104	1
2	71751	3108	1
2	71853	3112	1
2	71957	3116	1
2	72008	3120	1
2	72109	3124	1
2	72213	3128	1
2	72314	3132	1
2	72415	3136	1
2	72466	3140	1
2	72566	3144	1
2	72669	3148	1
2	72772	3152	1
2	72873	3156	1
2	72924	3160	1
2	73024	3164	1
2	73125	3168	1
2	73227	3172	1
2	73332	3176	1
2	73383	3180	1
2	73483	3184	1
2	73586	3188	1
2	73688	3192	1
2	73791	3196	1
2	73842	3200	1
2	73944	3204	1
2	74048	3208	1
2	74151	3212	1
2	74254	3216	1
2	74305	3220	1
2	74407	3224	1
2	74508	3228	1
2	74610	3232	1
2	74713	3236	1
2	74764	3240	1
2	74867	3244	1
2	74968	3248	1
2	75069	3252	1
2	75170	3256	1
2	75221	3260	1
2	75322	3264	1
2	75424	3268	1
2	75526	3272	1
2	75631	3276	1
2	75682	3280	1
2	75783	3284	1
2	75887	3288	1
2	75988	3292	1
2	76090	3296	1
2	76141	3300	1
2	76242	3304	1
2	76343	3308	1
2	76445	3312	1
2	76550	3316	1
2	76601	3320	1
2	76703	3324	1
2	76806	3328	1
2	76909	3332	1
2	77011	3336	1
2	77062	3340	1
2	77164	3344	1
2	77269	3348	1
2	77371	3352	1
2	77474	3356	1
2	77525	3360	1
2	77630	3364	1
2	77731	3368	1
2	77834	3372	1
2	77937	3376	1
2	77988	3380	1
2	78088	3384	1
2	78190	3388	1
2	78293	3392	1
2	78395	3396	1
2	78446	3400	1
2	78548	3404	1
2	78649	3408	1
2	78751	3412	1
2	78856	3416	1
2	78907	3420	1
2	79007	3424	1
2	79109	3428	1
2	79213	3432	1
2	79315	3436	1
2	79366	3440	1
2	79469	3444	1
2	79571	3448	1
2	79676	3452	1
2	79777	3456	1
2	79828	3460	1
2	79930	3464	1
2	80033	3468	1
2	80134	3472	1
2	80236	3476	1
2	80287	3480	1
2	80390	3484	1
2	80492	3488	1
2	80596	3492	1
2	80698	3496	1
2	80749	3500	1
2	80852	3504	1
2	80956	3508	1
2	81057	3512	1
2	81159	3516	1
2	81210	3520	1
2	81313	3524	1
2	81416	3528	1
2	81517	3532	1
2	81619	3536	1
2	81670	3540	1
2	81774	3544	1
2	81876	3548	1
2	81979	3552	1
2	82082	3556	1
2	82133	3560	1
2	82235	3564	1
2	82339	3568	1
2	82440	3572	1
2	82543	3576	1
2	82594	3580	1
2	82695	3584	1
2	82799	3588	1
2	82902	3592	1
2	83005	3596	1
2	83056	3600	1
3	4	4	1
3	123	8	1
3	237	12	1
3	349	16	1
3	400	20	1
3	506	24	1
3	609	28	1
3	719	32	1
3	828	36	1
3	879	40	1
3	984	44	1
3	1092	48	1
3	1202	52	1
3	1308	56	1
3	1359	60	1
3	1465	64	1
3	1569	68	1
3	1676	72	1
3	1783	76	1
3	1834	80	1
3	1939	84	1
3	2043	88	1
3	2153	92	1
3	2259	96	1
3	2310	100	1
3	2417	104	1
3	2520	108	1
3	2625	112	1
3	2728	116	1
3	2779	120	1
3	2886	124	1
3	2991	128	1
3	3096	132	1
3	3199	136	1
3	3250	140	1
3	3353	144	1
3	3459	148	1
3	3563	152	1
3	3671	156	1
3	3722	160	1
3	3826	164	1
3	3931	168	1
3	4035	172	1
3	4138	176	1
3	4189	180	1
3	4291	184	1
3	4393	188	1
3	4497	192	1
3	4602	196	1
3	4653	200	1
3	4754	204	1
3	4860	208	1
3	4964	212	1
3	5067	216	1
3	5118	220	1
3	5222	224	1
3	5324	228	1
3	5426	232	1
3	5529	236	1
3	5580	240	1
3	5684	244	1
3	5786	248	1
3	5893	252	1
3	5997	256	1
3	6048	260	1
3	6148	264	1
3	6252	268	1
3	6353	272	1
3	6457	276	1
3	6508	280	1
3	6611	284	1
3	6713	288	1
3	6822	292	1
3	6926	296	1
3	6977	300	1
3	7078	304	1
3	7181	308	1
3	7287	312	1
3	7390	316	1
3	7441	320	1
3	7542	324	1
3	7646	328	1
3	7747	332	1
3	7851	336	1
3	7902	340	1
3	8004	344	1
3	8107	348	1
3	8209	352	1
3	8316	356	1
3	8367	360	1
3	8468	364	1
3	8571	368	1
3	8677	372	1
3	8779	376	1
3	8830	380	1
3	8934	384	1
3	9035	388	1
3	9138	392	1
3	9242	396	1
3	9293	400	1
3	9396	404	1
3	9498	408	1
3	9600	412	1
3	9703	416	1
3	9754	420	1
3	9857	424	1
3	9959	428	1
3	10066	432	1
3	10170	436	1
3	10221	440	1
3	10322	444	1
3	10427	448	1
3	10529	452	1
3	10633	456	1
3	10684	460	1
3	10786	464	1
3	10890	468	1
3	10991	472	1
3	11094	476	1
3	11145	480	1
3	11248	484	1
3	11351	488	1
3	11452	492	1
3	11555	496	1
3	11606	500	1
3	11707	504	1
3	11811	508	1
3	11914	512	1
3	12017	516	1
3	12068	520	1
3	12171	524	1
3	12275	528	1
3	12377	532	1
3	12480	536	1
3	12531	540	1
3	12636	544	1
3	12741	548	1
3	12844	552	1
3	12946	556	1
3	12997	560	1
3	13100	564	1
3	13204	568	1
3	13307	572	1
3	13410	576	1
3	13461	580	1
3	13561	584	1
3	13663	588	1
3	13769	592	1
3	13874	596	1
3	13925	600	1
3	14026	604	1
3	14132	608	1
3	14235	612	1
3	14337	616	1
3	14388	620	1
3	14489	624	1
3	14591	628	1
3	14695	632	1
3	14796	636	1
3	14847	640	1
3	14951	644	1
3	15053	648	1
3	15156	652	1
3	15259	656	1
3	15310	660	1
3	15414	664	1
3	15516	668	1
3	15620	672	1
3	15722	676	1
3	15773	680	1
3	15874	684	1
3	15977	688	1
3	16079	692	1
3	16183	696	1
3	16234	700	1
3	16335	704	1
3	16439	708	1
3	16542	712	1
3	16644	716	1
3	16695	720	1
3	16799	724	1
3	16901	728	1
3	17006	732	1
3	17111	736	1
3	17162	740	1
3	17264	744	1
3	17367	748	1
3	17469	752	1
3	17571	756	1
3	17622	760	1
3	17724	764	1
3	17827	768	1
3	17930	772	1
3	18031	776	1
3	18082	780	1
3	18182	784	1
3	18284	788	1
3	18392	792	1
3	18494	796	1
3	18545	800	1
3	18648	804	1
3	18750	808	1
3	18855	812	1
3	18958	816	1
3	19009	820	1
3	19109	824	1
3	19210	828	1
3	19312	832	1
3	19415	836	1
3	19466	840	1
3	19570	844	1
3	19673	848	1
3	19777	852	1
3	19878	856	1
3	19929	860	1
3	20030	864	1
3	20136	868	1
3	20238	872	1
3	20342	876	1
3	20393	880	1
3	20498	884	1
3	20602	888	1
3	20705	892	1
3	20807	896	1
3	20858	900	1
3	20960	904	1
3	21062	908	1
3	21168	912	1
3	21270	916	1
3	21321	920	1
3	21422	924	1
3	21524	928	1
3	21630	932	1
3	21731	936	1
3	21782	940	1
3	21883	944	1
3	21990	948	1
3	22092	952	1
3	22195	956	1
3	22246	960	1
3	22351	964	1
3	22452	968	1
3	22554	972	1
3	22659	976	1
3	22710	980	1
3	22812	984	1
3	22914	988	1
3	23017	992	1
3	23121	996	1
3	23172	1000	1
3	23274	1004	1
3	23377	1008	1
3	23479	1012	1
3	23583	1016	1
3	23634	1020	1
3	23735	1024	1
3	23840	1028	1
3	23942	1032	1
3	24044	1036	1
3	24095	1040	1
3	24198	1044	1
3	24303	1048	1
3	24405	1052	1
3	24508	1056	1
3	24559	1060	1
3	24661	1064	1
3	24765	1068	1
3	24869	1072	1
3	24970	1076	1
3	25021	1080	1
3	25122	1084	1
3	25226	1088	1
3	25328	1092	1
3	25432	1096	1
3	25483	1100	1
3	25583	1104	1
3	25684	1108	1
3	25786	1112	1
3	25891	1116	1
3	25942	1120	1
3	26046	1124	1
3	26150	1128	1
3	26251	1132	1
3	26353	1136	1
3	26404	1140	1
3	26505	1144	1
3	26608	1148	1
3	26709	1152	1
3	26811	1156	1
3	26862	1160	1
3	26965	1164	1
3	27066	1168	1
3	27168	1172	1
3	27276	1176	1
3	27327	1180	1
3	27428	1184	1
3	27532	1188	1
3	27633	1192	1
3	27734	1196	1
3	27785	1200	1
3	27886	1204	1
3	27989	1208	1
3	28092	1212	1
3	28195	1216	1
3	28246	1220	1
3	28349	1224	1
3	28451	1228	1
3	28554	1232	1
3	28657	1236	1
3	28708	1240	1
3	28810	1244	1
3	28914	1248	1
3	29018	1252	1
3	29120	1256	1
3	29171	1260	1
3	29272	1264	1
3	29375	1268	1
3	29480	1272	1
3	29581	1276	1
3	29632	1280	1
3	29733	1284	1
3	29835	1288	1
3	29939	1292	1
3	30042	1296	1
3	30093	1300	1
3	30195	1304	1
3	30296	1308	1
3	30399	1312	1
3	30502	1316	1
3	30553	1320	1
3	30653	1324	1
3	30756	1328	1
3	30858	1332	1
3	30963	1336	1
3	31014	1340	1
3	31114	1344	1
3	31215	1348	1
3	31320	1352	1
3	31421	1356	1
3	31472	1360	1
3	31573	1364	1
3	31676	1368	1
3	31780	1372	1
3	31882	1376	1
3	31933	1380	1
3	32037	1384	1
3	32140	1388	1
3	32242	1392	1
3	32345	1396	1
3	32396	1400	1
3	32502	1404	1
3	32604	1408	1
3	32709	1412	1
3	32811	1416	1
3	32862	1420	1
3	32967	1424	1
3	33070	1428	1
3	33171	1432	1
3	33274	1436	1
3	33325	1440	1
3	33427	1444	1
3	33530	1448	1
3	33631	1452	1
3	33732	1456	1
3	33783	1460	1
3	33883	1464	1
3	33984	1468	1
3	34085	1472	1
3	34189	1476	1
3	34240	1480	1
3	34340	1484	1
3	34443	1488	1
3	34547	1492	1
3	34650	1496	1
3	34701	1500	1
3	34803	1504	1
3	34904	1508	1
3	35005	1512	1
3	35106	1516	1
3	35157	1520	1
3	35257	1524	1
3	35359	1528	1
3	35461	1532	1
3	35563	1536	1
3	35614	1540	1
3	35716	1544	1
3	35819	1548	1
3	35923	1552	1
3	36025	1556	1
3	36076	1560	1
3	36179	1564	1
3	36281	1568	1
3	36384	1572	1
3	36486	1576	1
3	36537	1580	1
3	36639	1584	1
3	36742	1588	1
3	36847	1592	1
3	36949	1596	1
3	37000	1600	1
3	37101	1604	1
3	37204	1608	1
3	37306	1612	1
3	37409	1616	1
3	37460	1620	1
3	37563	1624	1
3	37664	1628	1
3	37766	1632	1
3	37871	1636	1
3	37922	1640	1
3	38023	1644	1
3	38127	1648	1
3	38231	1652	1
3	38333	1656	1
3	38384	1660	1
3	38486	1664	1
3	38590	1668	1
3	38693	1672	1
3	38794	1676	1
3	38845	1680	1
3	38947	1684	1
3	39050	1688	1
3	39152	1692	1
3	39256	1696	1
3	39307	1700	1
3	39409	1704	1
3	39510	1708	1
3	39612	1712	1
3	39717	1716	1
3	39768	1720	1
3	39868	1724	1
3	39970	1728	1
3	40073	1732	1
3	40178	1736	1
3	40229	1740	1
3	40331	1744	1
3	40434	1748	1
3	40536	1752	1
3	40639	1756	1
3	40690	1760	1
3	40793	1764	1
3	40895	1768	1
3	41000	1772	1
3	41101	1776	1
3	41152	1780	1
3	41253	1784	1
3	41358	1788	1
3	41460	1792	1
3	41563	1796	1
3	41614	1800	1
3	41715	1804	1
3	41817	1808	1
3	41921	1812	1
3	42024	1816	1
3	42075	1820	1
3	42175	1824	1
3	42278	1828	1
3	42381	1832	1
3	42483	1836	1
3	42534	1840	1
3	42636	1844	1
3	42740	1848	1
3	42844	1852	1
3	42947	1856	1
3	42998	1860	1
3	43100	1864	1
3	43201	1868	1
3	43303	1872	1
3	43405	1876	1
3	43456	1880	1
3	43557	1884	1
3	43660	1888	1
3	43764	1892	1
3	43867	1896	1
3	43918	1900	1
3	44018	1904	1
3	44119	1908	1
3	44222	1912	1
3	44324	1916	1
3	44375	1920	1
3	44477	1924	1
3	44583	1928	1
3	44685	1932	1
3	44787	1936	1
3	44838	1940	1
3	44940	1944	1
3	45041	1948	1
3	45143	1952	1
3	45245	1956	1
3	45296	1960	1
3	45397	1964	1
3	45502	1968	1
3	45604	1972	1
3	45707	1976	1
3	45758	1980	1
3	45863	1984	1
3	45964	1988	1
3	46066	1992	1
3	46169	1996	1
3	46220	2000	1
3	46323	2004	1
3	46424	2008	1
3	46527	2012	1
3	46630	2016	1
3	46681	2020	1
3	46781	2024	1
3	46883	2028	1
3	46986	2032	1
3	47089	2036	1
3	47140	2040	1
3	47243	2044	1
3	47344	2048	1
3	47448	2052	1
3	47549	2056	1
3	47600	2060	1
3	47701	2064	1
3	47805	2068	1
3	47906	2072	1
3	48008	2076	1
3	48059	2080	1
3	48161	2084	1
3	48264	2088	1
3	48370	2092	1
3	48473	2096	1
3	48524	2100	1
3	48624	2104	1
3	48727	2108	1
3	48830	2112	1
3	48932	2116	1
3	48983	2120	1
3	49086	2124	1
3	49189	2128	1
3	49290	2132	1
3	49392	2136	1
3	49443	2140	1
3	49545	2144	1
3	49647	2148	1
3	49749	2152	1
3	49851	2156	1
3	49902	2160	1
3	50005	2164	1
3	50107	2168	1
3	50212	2172	1
3	50313	2176	1
3	50364	2180	1
3	50464	2184	1
3	50566	2188	1
3	50670	2192	1
3	50772	2196	1
3	50823	2200	1
3	50925	2204	1
3	51029	2208	1
3	51133	2212	1
3	51235	2216	1
3	51286	2220	1
3	51390	2224	1
3	51492	2228	1
3	51595	2232	1
3	51698	2236	1
3	51749	2240	1
3	51853	2244	1
3	51955	2248	1
3	52060	2252	1
3	52161	2256	1
3	52212	2260	1
3	52315	2264	1
3	52418	2268	1
3	52520	2272	1
3	52626	2276	1
3	52677	2280	1
3	52778	2284	1
3	52881	2288	1
3	52986	2292	1
3	53088	2296	1
3	53139	2300	1
3	53240	2304	1
3	53342	2308	1
3	53446	2312	1
3	53549	2316	1
3	53600	2320	1
3	53700	2324	1
3	53802	2328	1
3	53908	2332	1
3	54011	2336	1
3	54062	2340	1
3	54162	2344	1
3	54264	2348	1
3	54367	2352	1
3	54469	2356	1
3	54520	2360	1
3	54622	2364	1
3	54725	2368	1
3	54828	2372	1
3	54929	2376	1
3	54980	2380	1
3	55080	2384	1
3	55182	2388	1
3	55287	2392	1
3	55389	2396	1
3	55440	2400	1
3	55541	2404	1
3	55642	2408	1
3	55743	2412	1
3	55846	2416	1
3	55897	2420	1
3	56001	2424	1
3	56102	2428	1
3	56203	2432	1
3	56306	2436	1
3	56357	2440	1
3	56457	2444	1
3	56559	2448	1
3	56661	2452	1
3	56762	2456	1
3	56813	2460	1
3	56915	2464	1
3	57017	2468	1
3	57121	2472	1
3	57222	2476	1
3	57273	2480	1
3	57373	2484	1
3	57475	2488	1
3	57578	2492	1
3	57681	2496	1
3	57732	2500	1
3	57836	2504	1
3	57938	2508	1
3	58040	2512	1
3	58142	2516	1
3	58193	2520	1
3	58296	2524	1
3	58398	2528	1
3	58501	2532	1
3	58605	2536	1
3	58656	2540	1
3	58756	2544	1
3	58857	2548	1
3	58961	2552	1
3	59062	2556	1
3	59113	2560	1
3	59214	2564	1
3	59316	2568	1
3	59418	2572	1
3	59521	2576	1
3	59572	2580	1
3	59675	2584	1
3	59776	2588	1
3	59879	2592	1
3	59981	2596	1
3	60032	2600	1
3	60135	2604	1
3	60236	2608	1
3	60339	2612	1
3	60442	2616	1
3	60493	2620	1
3	60594	2624	1
3	60696	2628	1
3	60797	2632	1
3	60900	2636	1
3	60951	2640	1
3	61052	2644	1
3	61155	2648	1
3	61258	2652	1
3	61361	2656	1
3	61412	2660	1
3	61515	2664	1
3	61617	2668	1
3	61721	2672	1
3	61824	2676	1
3	61875	2680	1
3	61976	2684	1
3	62080	2688	1
3	62181	2692	1
3	62284	2696	1
3	62335	2700	1
3	62436	2704	1
3	62538	2708	1
3	62640	2712	1
3	62744	2716	1
3	62795	2720	1
3	62897	2724	1
3	62999	2728	1
3	63104	2732	1
3	63205	2736	1
3	63256	2740	1
3	63356	2744	1
3	63458	2748	1
3	63561	2752	1
3	63667	2756	1
3	63718	2760	1
3	63820	2764	1
3	63921	2768	1
3	64023	2772	1
3	64125	2776	1
3	64176	2780	1
3	64277	2784	1
3	64381	2788	1
3	64484	2792	1
3	64585	2796	1
3	64636	2800	1
3	64736	2804	1
3	64840	2808	1
3	64941	2812	1
3	65042	2816	1
3	65093	2820	1
3	65197	2824	1
3	65300	2828	1
3	65401	2832	1
3	65504	2836	1
3	65555	2840	1
3	65656	2844	1
3	65758	2848	1
3	65861	2852	1
3	65963	2856	1
3	66014	2860	1
3	66119	2864	1
3	66221	2868	1
3	66325	2872	1
3	66428	2876	1
3	66479	2880	1
3	66579	2884	1
3	66680	2888	1
3	66782	2892	1
3	66887	2896	1
3	66938	2900	1
3	67039	2904	1
3	67142	2908	1
3	67246	2912	1
3	67348	2916	1
3	67399	2920	1
3	67501	2924	1
3	67605	2928	1
3	67708	2932	1
3	67809	2936	1
3	67860	2940	1
3	67960	2944	1
3	68062	2948	1
3	68165	2952	1
3	68268	2956	1
3	68319	2960	1
3	68423	2964	1
3	68526	2968	1
3	68628	2972	1
3	68732	2976	1
3	68783	2980	1
3	68884	2984	1
3	68989	2988	1
3	69091	2992	1
3	69195	2996	1
3	69246	3000	1
3	69346	3004	1
3	69448	3008	1
3	69550	3012	1
3	69655	3016	1
3	69706	3020	1
3	69806	3024	1
3	69908	3028	1
3	70011	3032	1
3	70114	3036	1
3	70165	3040	1
3	70270	3044	1
3	70372	3048	1
3	70474	3052	1
3	70576	3056	1
3	70627	3060	1
3	70730	3064	1
3	70834	3068	1
3	70935	3072	1
3	71036	3076	1
3	71087	3080	1
3	71189	3084	1
3	71291	3088	1
3	71394	3092	1
3	71498	3096	1
3	71549	3100	1
3	71651	3104	1
3	71752	3108	1
3	71854	3112	1
3	71958	3116	1
3	72009	3120	1
3	72110	3124	1
3	72214	3128	1
3	72315	3132	1
3	72416	3136	1
3	72467	3140	1
3	72567	3144	1
3	72670	3148	1
3	72773	3152	1
3	72874	3156	1
3	72925	3160	1
3	73025	3164	1
3	73126	3168	1
3	73228	3172	1
3	73333	3176	1
3	73384	3180	1
3	73484	3184	1
3	73587	3188	1
3	73689	3192	1
3	73792	3196	1
3	73843	3200	1
3	73945	3204	1
3	74049	3208	1
3	74152	3212	1
3	74255	3216	1
3	74306	3220	1
3	74408	3224	1
3	74509	3228	1
3	74611	3232	1
3	74714	3236	1
3	74765	3240	1
3	74868	3244	1
3	74969	3248	1
3	75070	3252	1
3	75171	3256	1
3	75222	3260	1
3	75323	3264	1
3	75425	3268	1
3	75527	3272	1
3	75632	3276	1
3	75683	3280	1
3	75784	3284	1
3	75888	3288	1
3	75989	3292	1
3	76091	3296	1
3	76142	3300	1
3	76243	3304	1
3	76344	3308	1
3	76446	3312	1
3	76551	3316	1
3	76602	3320	1
3	76704	3324	1
3	76807	3328	1
3	76910	3332	1
3	77012	3336	1
3	77063	3340	1
3	77165	3344	1
3	77270	3348	1
3	77372	3352	1
3	77475	3356	1
3	77526	3360	1
3	77631	3364	1
3	77732	3368	1
3	77835	3372	1
3	77938	3376	1
3	77989	3380	1
3	78089	3384	1
3	78191	3388	1
3	78294	3392	1
3	78396	3396	1
3	78447	3400	1
3	78549	3404	1
3	78650	3408	1
3	78752	3412	1
3	78857	3416	1
3	78908	3420	1
3	79008	3424	1
3	79110	3428	1
3	79214	3432	1
3	79316	3436	1
3	79367	3440	1
3	79470	3444	1
3	79572	3448	1
3	79677	3452	1
3	79778	3456	1
3	79829	3460	1
3	79931	3464	1
3	80034	3468	1
3	80135	3472	1
3	80237	3476	1
3	80288	3480	1
3	80391	3484	1
3	80493	3488	1
3	80597	3492	1
3	80699	3496	1
3	80750	3500	1
3	80853	3504	1
3	80957	3508	1
3	81058	3512	1
3	81160	3516	1
3	81211	3520	1
3	81314	3524	1
3	81417	3528	1
3	81518	3532	1
3	81620	3536	1
3	81671	3540	1
3	81775	3544	1
3	81877	3548	1
3	81980	3552	1
3	82083	3556	1
3	82134	3560	1
3	82236	3564	1
3	82340	3568	1
3	82441	3572	1
3	82544	3576	1
3	82595	3580	1
3	82696	3584	1
3	82800	3588	1
3	82903	3592	1
3	83006	3596	1
3	83057	3600	1
4	5	4	1
4	124	8	1
4	238	12	1
4	350	16	1
4	401	20	1
4	507	24	1
4	610	28	1
4	720	32	1
4	829	36	1
4	880	40	1
4	985	44	1
4	1093	48	1
4	1203	52	1
4	1309	56	1
4	1360	60	1
4	1466	64	1
4	1570	68	1
4	1677	72	1
4	1784	76	1
4	1835	80	1
4	1940	84	1
4	2044	88	1
4	2154	92	1
4	2260	96	1
4	2311	100	1
4	2418	104	1
4	2521	108	1
4	2626	112	1
4	2729	116	1
4	2780	120	1
4	2887	124	1
4	2992	128	1
4	3097	132	1
4	3200	136	1
4	3251	140	1
4	3354	144	1
4	3460	148	1
4	3564	152	1
4	3672	156	1
4	3723	160	1
4	3827	164	1
4	3932	168	1
4	4036	172	1
4	4139	176	1
4	4190	180	1
4	4292	184	1
4	4394	188	1
4	4498	192	1
4	4603	196	1
4	4654	200	1
4	4755	204	1
4	4861	208	1
4	4965	212	1
4	5068	216	1
4	5119	220	1
4	5223	224	1
4	5325	228	1
4	5427	232	1
4	5530	236	1
4	5581	240	1
4	5685	244	1
4	5787	248	1
4	5894	252	1
4	5998	256	1
4	6049	260	1
4	6149	264	1
4	6253	268	1
4	6354	272	1
4	6458	276	1
4	6509	280	1
4	6612	284	1
4	6714	288	1
4	6823	292	1
4	6927	296	1
4	6978	300	1
4	7079	304	1
4	7182	308	1
4	7288	312	1
4	7391	316	1
4	7442	320	1
4	7543	324	1
4	7647	328	1
4	7748	332	1
4	7852	336	1
4	7903	340	1
4	8005	344	1
4	8108	348	1
4	8210	352	1
4	8317	356	1
4	8368	360	1
4	8469	364	1
4	8572	368	1
4	8678	372	1
4	8780	376	1
4	8831	380	1
4	8935	384	1
4	9036	388	1
4	9139	392	1
4	9243	396	1
4	9294	400	1
4	9397	404	1
4	9499	408	1
4	9601	412	1
4	9704	416	1
4	9755	420	1
4	9858	424	1
4	9960	428	1
4	10067	432	1
4	10171	436	1
4	10222	440	1
4	10323	444	1
4	10428	448	1
4	10530	452	1
4	10634	456	1
4	10685	460	1
4	10787	464	1
4	10891	468	1
4	10992	472	1
4	11095	476	1
4	11146	480	1
4	11249	484	1
4	11352	488	1
4	11453	492	1
4	11556	496	1
4	11607	500	1
4	11708	504	1
4	11812	508	1
4	11915	512	1
4	12018	516	1
4	12069	520	1
4	12172	524	1
4	12276	528	1
4	12378	532	1
4	12481	536	1
4	12532	540	1
4	12637	544	1
4	12742	548	1
4	12845	552	1
4	12947	556	1
4	12998	560	1
4	13101	564	1
4	13205	568	1
4	13308	572	1
4	13411	576	1
4	13462	580	1
4	13562	584	1
4	13664	588	1
4	13770	592	1
4	13875	596	1
4	13926	600	1
4	14027	604	1
4	14133	608	1
4	14236	612	1
4	14338	616	1
4	14389	620	1
4	14490	624	1
4	14592	628	1
4	14696	632	1
4	14797	636	1
4	14848	640	1
4	14952	644	1
4	15054	648	1
4	15157	652	1
4	15260	656	1
4	15311	660	1
4	15415	664	1
4	15517	668	1
4	15621	672	1
4	15723	676	1
4	15774	680	1
4	15875	684	1
4	15978	688	1
4	16080	692	1
4	16184	696	1
4	16235	700	1
4	16336	704	1
4	16440	708	1
4	16543	712	1
4	16645	716	1
4	16696	720	1
4	16800	724	1
4	16902	728	1
4	17007	732	1
4	17112	736	1
4	17163	740	1
4	17265	744	1
4	17368	748	1
4	17470	752	1
4	17572	756	1
4	17623	760	1
4	17725	764	1
4	17828	768	1
4	17931	772	1
4	18032	776	1
4	18083	780	1
4	18183	784	1
4	18285	788	1
4	18393	792	1
4	18495	796	1
4	18546	800	1
4	18649	804	1
4	18751	808	1
4	18856	812	1
4	18959	816	1
4	19010	820	1
4	19110	824	1
4	19211	828	1
4	19313	832	1
4	19416	836	1
4	19467	840	1
4	19571	844	1
4	19674	848	1
4	19778	852	1
4	19879	856	1
4	19930	860	1
4	20031	864	1
4	20137	868	1
4	20239	872	1
4	20343	876	1
4	20394	880	1
4	20499	884	1
4	20603	888	1
4	20706	892	1
4	20808	896	1
4	20859	900	1
4	20961	904	1
4	21063	908	1
4	21169	912	1
4	21271	916	1
4	21322	920	1
4	21423	924	1
4	21525	928	1
4	21631	932	1
4	21732	936	1
4	21783	940	1
4	21884	944	1
4	21991	948	1
4	22093	952	1
4	22196	956	1
4	22247	960	1
4	22352	964	1
4	22453	968	1
4	22555	972	1
4	22660	976	1
4	22711	980	1
4	22813	984	1
4	22915	988	1
4	23018	992	1
4	23122	996	1
4	23173	1000	1
4	23275	1004	1
4	23378	1008	1
4	23480	1012	1
4	23584	1016	1
4	23635	1020	1
4	23736	1024	1
4	23841	1028	1
4	23943	1032	1
4	24045	1036	1
4	24096	1040	1
4	24199	1044	1
4	24304	1048	1
4	24406	1052	1
4	24509	1056	1
4	24560	1060	1
4	24662	1064	1
4	24766	1068	1
4	24870	1072	1
4	24971	1076	1
4	25022	1080	1
4	25123	1084	1
4	25227	1088	1
4	25329	1092	1
4	25433	1096	1
4	25484	1100	1
4	25584	1104	1
4	25685	1108	1
4	25787	1112	1
4	25892	1116	1
4	25943	1120	1
4	26047	1124	1
4	26151	1128	1
4	26252	1132	1
4	26354	1136	1
4	26405	1140	1
4	26506	1144	1
4	26609	1148	1
4	26710	1152	1
4	26812	1156	1
4	26863	1160	1
4	26966	1164	1
4	27067	1168	1
4	27169	1172	1
4	27277	1176	1
4	27328	1180	1
4	27429	1184	1
4	27533	1188	1
4	27634	1192	1
4	27735	1196	1
4	27786	1200	1
4	27887	1204	1
4	27990	1208	1
4	28093	1212	1
4	28196	1216	1
4	28247	1220	1
4	28350	1224	1
4	28452	1228	1
4	28555	1232	1
4	28658	1236	1
4	28709	1240	1
4	28811	1244	1
4	28915	1248	1
4	29019	1252	1
4	29121	1256	1
4	29172	1260	1
4	29273	1264	1
4	29376	1268	1
4	29481	1272	1
4	29582	1276	1
4	29633	1280	1
4	29734	1284	1
4	29836	1288	1
4	29940	1292	1
4	30043	1296	1
4	30094	1300	1
4	30196	1304	1
4	30297	1308	1
4	30400	1312	1
4	30503	1316	1
4	30554	1320	1
4	30654	1324	1
4	30757	1328	1
4	30859	1332	1
4	30964	1336	1
4	31015	1340	1
4	31115	1344	1
4	31216	1348	1
4	31321	1352	1
4	31422	1356	1
4	31473	1360	1
4	31574	1364	1
4	31677	1368	1
4	31781	1372	1
4	31883	1376	1
4	31934	1380	1
4	32038	1384	1
4	32141	1388	1
4	32243	1392	1
4	32346	1396	1
4	32397	1400	1
4	32503	1404	1
4	32605	1408	1
4	32710	1412	1
4	32812	1416	1
4	32863	1420	1
4	32968	1424	1
4	33071	1428	1
4	33172	1432	1
4	33275	1436	1
4	33326	1440	1
4	33428	1444	1
4	33531	1448	1
4	33632	1452	1
4	33733	1456	1
4	33784	1460	1
4	33884	1464	1
4	33985	1468	1
4	34086	1472	1
4	34190	1476	1
4	34241	1480	1
4	34341	1484	1
4	34444	1488	1
4	34548	1492	1
4	34651	1496	1
4	34702	1500	1
4	34804	1504	1
4	34905	1508	1
4	35006	1512	1
4	35107	1516	1
4	35158	1520	1
4	35258	1524	1
4	35360	1528	1
4	35462	1532	1
4	35564	1536	1
4	35615	1540	1
4	35717	1544	1
4	35820	1548	1
4	35924	1552	1
4	36026	1556	1
4	36077	1560	1
4	36180	1564	1
4	36282	1568	1
4	36385	1572	1
4	36487	1576	1
4	36538	1580	1
4	36640	1584	1
4	36743	1588	1
4	36848	1592	1
4	36950	1596	1
4	37001	1600	1
4	37102	1604	1
[...]
100	41404	1788	1
100	41506	1792	1
100	41609	1796	1
100	41660	1800	1
100	41761	1804	1
100	41863	1808	1
100	41967	1812	1
100	42070	1816	1
100	42121	1820	1
100	42221	1824	1
100	42324	1828	1
100	42427	1832	1
100	42529	1836	1
100	42580	1840	1
100	42682	1844	1
100	42786	1848	1
100	42890	1852	1
100	42993	1856	1
100	43044	1860	1
100	43146	1864	1
100	43247	1868	1
100	43349	1872	1
100	43451	1876	1
100	43502	1880	1
100	43603	1884	1
100	43706	1888	1
100	43810	1892	1
100	43913	1896	1
100	43964	1900	1
100	44064	1904	1
100	44165	1908	1
100	44268	1912	1
100	44370	1916	1
100	44421	1920	1
100	44523	1924	1
100	44629	1928	1
100	44731	1932	1
100	44833	1936	1
100	44884	1940	1
100	44986	1944	1
100	45087	1948	1
100	45189	1952	1
100	45291	1956	1
100	45342	1960	1
100	45443	1964	1
100	45548	1968	1
100	45650	1972	1
100	45753	1976	1
100	45804	1980	1
100	45909	1984	1
100	46010	1988	1
100	46112	1992	1
100	46215	1996	1
100	46266	2000	1
100	46369	2004	1
100	46470	2008	1
100	46573	2012	1
100	46676	2016	1
100	46727	2020	1
100	46827	2024	1
100	46929	2028	1
100	47032	2032	1
100	47135	2036	1
100	47186	2040	1
100	47289	2044	1
100	47390	2048	1
100	47494	2052	1
100	47595	2056	1
100	47646	2060	1
100	47747	2064	1
100	47851	2068	1
100	47952	2072	1
100	48054	2076	1
100	48105	2080	1
100	48207	2084	1
100	48310	2088	1
100	48416	2092	1
100	48519	2096	1
100	48570	2100	1
100	48670	2104	1
100	48773	2108	1
100	48876	2112	1
100	48978	2116	1
100	49029	2120	1
100	49132	2124	1
100	49235	2128	1
100	49336	2132	1
100	49438	2136	1
100	49489	2140	1
100	49591	2144	1
100	49693	2148	1
100	49795	2152	1
100	49897	2156	1
100	49948	2160	1
100	50051	2164	1
100	50153	2168	1
100	50258	2172	1
100	50359	2176	1
100	50410	2180	1
100	50510	2184	1
100	50612	2188	1
100	50716	2192	1
100	50818	2196	1
100	50869	2200	1
100	50971	2204	1
100	51075	2208	1
100	51179	2212	1
100	51281	2216	1
100	51332	2220	1
100	51436	2224	1
100	51538	2228	1
100	51641	2232	1
100	51744	2236	1
100	51795	2240	1
100	51899	2244	1
100	52001	2248	1
100	52106	2252	1
100	52207	2256	1
100	52258	2260	1
100	52361	2264	1
100	52464	2268	1
100	52566	2272	1
100	52672	2276	1
100	52723	2280	1
100	52824	2284	1
100	52927	2288	1
100	53032	2292	1
100	53134	2296	1
100	53185	2300	1
100	53286	2304	1
100	53388	2308	1
100	53492	2312	1
100	53595	2316	1
100	53646	2320	1
100	53746	2324	1
100	53848	2328	1
100	53954	2332	1
100	54057	2336	1
100	54108	2340	1
100	54208	2344	1
100	54310	2348	1
100	54413	2352	1
100	54515	2356	1
100	54566	2360	1
100	54668	2364	1
100	54771	2368	1
100	54874	2372	1
100	54975	2376	1
100	55026	2380	1
100	55126	2384	1
100	55228	2388	1
100	55333	2392	1
100	55435	2396	1
100	55486	2400	1
100	55587	2404	1
100	55688	2408	1
100	55789	2412	1
100	55892	2416	1
100	55943	2420	1
100	56047	2424	1
100	56148	2428	1
100	56249	2432	1
100	56352	2436	1
100	56403	2440	1
100	56503	2444	1
100	56605	2448	1
100	56707	2452	1
100	56808	2456	1
100	56859	2460	1
100	56961	2464	1
100	57063	2468	1
100	57167	2472	1
100	57268	2476	1
100	57319	2480	1
100	57419	2484	1
100	57521	2488	1
100	57624	2492	1
100	57727	2496	1
100	57778	2500	1
100	57882	2504	1
100	57984	2508	1
100	58086	2512	1
100	58188	2516	1
100	58239	2520	1
100	58342	2524	1
100	58444	2528	1
100	58547	2532	1
100	58651	2536	1
100	58702	2540	1
100	58802	2544	1
100	58903	2548	1
100	59007	2552	1
100	59108	2556	1
100	59159	2560	1
100	59260	2564	1
100	59362	2568	1
100	59464	2572	1
100	59567	2576	1
100	59618	2580	1
100	59721	2584	1
100	59822	2588	1
100	59925	2592	1
100	60027	2596	1
100	60078	2600	1
100	60181	2604	1
100	60282	2608	1
100	60385	2612	1
100	60488	2616	1
100	60539	2620	1
100	60640	2624	1
100	60742	2628	1
100	60843	2632	1
100	60946	2636	1
100	60997	2640	1
100	61098	2644	1
100	61201	2648	1
100	61304	2652	1
100	61407	2656	1
100	61458	2660	1
100	61561	2664	1
100	61663	2668	1
100	61767	2672	1
100	61870	2676	1
100	61921	2680	1
100	62022	2684	1
100	62126	2688	1
100	62227	2692	1
100	62330	2696	1
100	62381	2700	1
100	62482	2704	1
100	62584	2708	1
100	62686	2712	1
100	62790	2716	1
100	62841	2720	1
100	62943	2724	1
100	63045	2728	1
100	63150	2732	1
100	63251	2736	1
100	63302	2740	1
100	63402	2744	1
100	63504	2748	1
100	63607	2752	1
100	63713	2756	1
100	63764	2760	1
100	63866	2764	1
100	63967	2768	1
100	64069	2772	1
100	64171	2776	1
100	64222	2780	1
100	64323	2784	1
100	64427	2788	1
100	64530	2792	1
100	64631	2796	1
100	64682	2800	1
100	64782	2804	1
100	64886	2808	1
100	64987	2812	1
100	65088	2816	1
100	65139	2820	1
100	65243	2824	1
100	65346	2828	1
100	65447	2832	1
100	65550	2836	1
100	65601	2840	1
100	65702	2844	1
100	65804	2848	1
100	65907	2852	1
100	66009	2856	1
100	66060	2860	1
100	66165	2864	1
100	66267	2868	1
100	66371	2872	1
100	66474	2876	1
100	66525	2880	1
100	66625	2884	1
100	66726	2888	1
100	66828	2892	1
100	66933	2896	1
100	66984	2900	1
100	67085	2904	1
100	67188	2908	1
100	67292	2912	1
100	67394	2916	1
100	67445	2920	1
100	67547	2924	1
100	67651	2928	1
100	67754	2932	1
100	67855	2936	1
100	67906	2940	1
100	68006	2944	1
100	68108	2948	1
100	68211	2952	1
100	68314	2956	1
100	68365	2960	1
100	68469	2964	1
100	68572	2968	1
100	68674	2972	1
100	68778	2976	1
100	68829	2980	1
100	68930	2984	1
100	69035	2988	1
100	69137	2992	1
100	69241	2996	1
100	69292	3000	1
100	69392	3004	1
100	69494	3008	1
100	69596	3012	1
100	69701	3016	1
100	69752	3020	1
100	69852	3024	1
100	69954	3028	1
100	70057	3032	1
100	70160	3036	1
100	70211	3040	1
100	70316	3044	1
100	70418	3048	1
100	70520	3052	1
100	70622	3056	1
100	70673	3060	1
100	70776	3064	1
100	70880	3068	1
100	70981	3072	1
100	71082	3076	1
100	71133	3080	1
100	71235	3084	1
100	71337	3088	1
100	71440	3092	1
100	71544	3096	1
100	71595	3100	1
100	71697	3104	1
100	71798	3108	1
100	71900	3112	1
100	72004	3116	1
100	72055	3120	1
100	72156	3124	1
100	72260	3128	1
100	72361	3132	1
100	72462	3136	1
100	72513	3140	1
100	72613	3144	1
100	72716	3148	1
100	72819	3152	1
100	72920	3156	1
100	72971	3160	1
100	73071	3164	1
100	73172	3168	1
100	73274	3172	1
100	73379	3176	1
100	73430	3180	1
100	73530	3184	1
100	73633	3188	1
100	73735	3192	1
100	73838	3196	1
100	73889	3200	1
100	73991	3204	1
100	74095	3208	1
100	74198	3212	1
100	74301	3216	1
100	74352	3220	1
100	74454	3224	1
100	74555	3228	1
100	74657	3232	1
100	74760	3236	1
100	74811	3240	1
100	74914	3244	1
100	75015	3248	1
100	75116	3252	1
100	75217	3256	1
100	75268	3260	1
100	75369	3264	1
100	75471	3268	1
100	75573	3272	1
100	75678	3276	1
100	75729	3280	1
100	75830	3284	1
100	75934	3288	1
100	76035	3292	1
100	76137	3296	1
100	76188	3300	1
100	76289	3304	1
100	76390	3308	1
100	76492	3312	1
100	76597	3316	1
100	76648	3320	1
100	76750	3324	1
100	76853	3328	1
100	76956	3332	1
100	77058	3336	1
100	77109	3340	1
100	77211	3344	1
100	77316	3348	1
100	77418	3352	1
100	77521	3356	1
100	77572	3360	1
100	77677	3364	1
100	77778	3368	1
100	77881	3372	1
100	77984	3376	1
100	78035	3380	1
100	78135	3384	1
100	78237	3388	1
100	78340	3392	1
100	78442	3396	1
100	78493	3400	1
100	78595	3404	1
100	78696	3408	1
100	78798	3412	1
100	78903	3416	1
100	78954	3420	1
100	79054	3424	1
100	79156	3428	1
100	79260	3432	1
100	79362	3436	1
100	79413	3440	1
100	79516	3444	1
100	79618	3448	1
100	79723	3452	1
100	79824	3456	1
100	79875	3460	1
100	79977	3464	1
100	80080	3468	1
100	80181	3472	1
100	80283	3476	1
100	80334	3480	1
100	80437	3484	1
100	80539	3488	1
100	80643	3492	1
100	80745	3496	1
100	80796	3500	1
100	80899	3504	1
100	81003	3508	1
100	81104	3512	1
100	81206	3516	1
100	81257	3520	1
100	81360	3524	1
100	81463	3528	1
100	81564	3532	1
100	81666	3536	1
100	81717	3540	1
100	81821	3544	1
100	81923	3548	1
100	82026	3552	1
100	82129	3556	1
100	82180	3560	1
100	82282	3564	1
100	82386	3568	1
100	82487	3572	1
100	82590	3576	1
100	82641	3580	1
100	82742	3584	1
100	82846	3588	1
100	82949	3592	1
100	83052	3596	1
100	83103	3600	1
101	4442	190	1
101	17518	755	1
102	4442	190	186
102	17518	755	747
103	4442	190	1
103	17518	755	1
104	4803	205	1
104	35408	1530	1
104	35662	1540	1
104	35765	1545	1
104	36433	1575	1
104	37048	1600	1
105	4803	205	201
105	35408	1530	1522
105	35662	1540	1528
105	35765	1545	1529
105	36433	1575	1555
105	37048	1600	1392
106	4803	205	1
106	35408	1530	1
106	35662	1540	1
106	35765	1545	1
106	36433	1575	1
106	37048	1600	1
107	5373	230	1
107	32910	1420	1
107	36330	1570	1
107	37508	1620	1
107	40585	1755	1
107	40944	1770	1
107	45446	1965	1
107	45653	1975	1
108	5373	230	226
108	32910	1420	1412
108	36330	1570	1558
108	37508	1620	1604
108	40585	1755	1735
108	40944	1770	1538
108	45446	1965	541
108	45653	1975	403
109	5373	230	1
109	32910	1420	1
109	36330	1570	1
109	37508	1620	1
109	40585	1755	1
109	40944	1770	1
109	45446	1965	1
109	45653	1975	1
110	5835	250	1
110	7591	325	1
110	8258	355	1
110	10371	445	1
110	11756	505	1
110	14640	630	1
110	15358	660	1
110	27477	1185	1
111	5835	250	246
111	7591	325	317
111	8258	355	343
111	10371	445	429
111	11756	505	485
111	14640	630	378
111	15358	660	332
111	27477	1185	829
112	5835	250	1
112	7591	325	1
112	8258	355	1
112	10371	445	1
112	11756	505	1
112	14640	630	1
112	15358	660	1
112	27477	1185	1
113	6762	290	1
113	10008	430	1
114	6762	290	286
114	10008	430	422
115	6762	290	1
115	10008	430	1
116	7127	305	1
117	7127	305	301
118	7127	305	1
119	7230	310	1
119	58241	2520	1
119	58447	2530	1
119	65705	2845	1
119	67088	2905	1
119	67447	2920	1
119	67550	2925	1
119	68933	2985	1
119	70675	3060	1
119	72159	3125	1
119	73277	3175	1
119	76495	3315	1
119	77111	3340	1
119	79415	3440	1
119	80336	3480	1
119	80798	3500	1
120	7230	310	306
120	58241	2520	2512
120	58447	2530	2518
120	65705	2845	2829
120	67088	2905	2885
120	67447	2920	2608
120	67550	2925	401
120	68933	2985	453
120	70675	3060	212
120	72159	3125	217
120	73277	3175	251
120	76495	3315	387
120	77111	3340	352
120	79415	3440	376
120	80336	3480	352
120	80798	3500	324
121	7230	310	1
121	58241	2520	1
121	58447	2530	1
121	65705	2845	1
121	67088	2905	1
121	67447	2920	1
121	67550	2925	1
121	68933	2985	1
121	70675	3060	1
121	72159	3125	1
121	73277	3175	1
121	76495	3315	1
121	77111	3340	1
121	79415	3440	1
121	80336	3480	1
121	80798	3500	1
122	8517	365	1
122	8620	370	1
123	8517	365	361
123	8620	370	362
124	8517	365	1
124	8620	370	1
125	8878	380	1
125	29782	1285	1
125	35868	1550	1
125	36124	1560	1
125	37815	1635	1
126	8878	380	376
126	29782	1285	1277
126	35868	1550	1538
126	36124	1560	1544
126	37815	1635	1615
127	8878	380	1
127	29782	1285	1
127	35868	1550	1
127	36124	1560	1
127	37815	1635	1
128	9547	410	1
129	9547	410	406
130	9547	410	1
131	10578	455	1
131	23528	1015	1
132	10578	455	451
132	23528	1015	1007
133	10578	455	1
133	23528	1015	1
134	12426	535	1
134	14436	620	1
135	12426	535	531
135	14436	620	612
136	12426	535	1
136	14436	620	1
137	12579	540	1
137	14075	605	1
137	15102	650	1
137	15205	655	1
137	19361	835	1
137	20287	875	1
137	79621	3450	1
137	80542	3490	1
138	12579	540	536
138	14075	605	597
138	15102	650	638
138	15205	655	639
138	19361	835	815
138	20287	875	331
138	79621	3450	2842
138	80542	3490	2838
139	12579	540	1
139	14075	605	1
139	15102	650	1
139	15205	655	1
139	19361	835	1
139	20287	875	1
139	79621	3450	1
139	80542	3490	1
140	13045	560	1
140	15565	670	1
140	16128	695	1
140	20079	865	1
141	13045	560	556
141	15565	670	662
141	16128	695	683
141	20079	865	849
142	13045	560	1
142	15565	670	1
142	16128	695	1
142	20079	865	1
143	13712	590	1
143	15821	680	1
144	13712	590	586
144	15821	680	672
145	13712	590	1
145	15821	680	1
146	16384	705	1
146	26452	1140	1
146	26910	1160	1
147	16384	705	701
147	26452	1140	1132
147	26910	1160	1148
148	16384	705	1
148	26452	1140	1
148	26910	1160	1
149	16743	720	1
149	37355	1615	1
149	41302	1785	1
150	16743	720	716
150	37355	1615	1607
150	41302	1785	1773
151	16743	720	1
151	37355	1615	1
151	41302	1785	1
152	16950	730	1
152	27217	1175	1
152	27935	1205	1
152	28294	1220	1
152	28756	1240	1
152	28859	1245	1
152	30907	1335	1
152	32653	1410	1
153	16950	730	726
153	27217	1175	1167
153	27935	1205	1193
153	28294	1220	1204
153	28756	1240	1220
153	28859	1245	513
153	30907	1335	159
153	32653	1410	202
154	16950	730	1
154	27217	1175	1
154	27935	1205	1
154	28294	1220	1
154	28756	1240	1
154	28859	1245	1
154	30907	1335	1
154	32653	1410	1
155	18333	790	1
155	21369	920	1
155	21932	945	1
155	28500	1230	1
155	28603	1235	1
155	31725	1370	1
155	73891	3200	1
155	73994	3205	1
155	74660	3235	1
155	75372	3265	1
155	77421	3355	1
156	18333	790	786
156	21369	920	912
156	21932	945	933
156	28500	1230	1214
156	28603	1235	1215
156	31725	1370	578
156	73891	3200	2276
156	73994	3205	2257
156	74660	3235	2003
156	75372	3265	2029
156	77421	3355	1983
157	18333	790	1
157	21369	920	1
157	21932	945	1
157	28500	1230	1
157	28603	1235	1
157	31725	1370	1
157	73891	3200	1
157	73994	3205	1
157	74660	3235	1
157	75372	3265	1
157	77421	3355	1
158	18593	800	1
158	19514	840	1
158	50871	2200	1
158	50974	2205	1
158	61204	2650	1
158	61307	2655	1
158	66062	2860	1
158	66831	2895	1
158	68367	2960	1
158	69140	2995	1
158	75833	3285	1
158	81926	3550	1
158	82182	3560	1
158	82285	3565	1
158	82745	3585	1
159	18593	800	796
159	19514	840	832
159	50871	2200	2188
159	50974	2205	2189
159	61204	2650	2630
159	61307	2655	1851
159	66062	2860	2016
159	66831	2895	691
159	68367	2960	752
159	69140	2995	343
159	75833	3285	629
159	81926	3550	686
159	82182	3560	664
159	82285	3565	601
159	82745	3585	589
160	18593	800	1
160	19514	840	1
160	50871	2200	1
160	50974	2205	1
160	61204	2650	1
160	61307	2655	1
160	66062	2860	1
160	66831	2895	1
160	68367	2960	1
160	69140	2995	1
160	75833	3285	1
160	81926	3550	1
160	82182	3560	1
160	82285	3565	1
160	82745	3585	1
161	18799	810	1
161	22603	975	1
161	23784	1025	1
162	18799	810	806
162	22603	975	967
162	23784	1025	1013
163	18799	810	1
163	22603	975	1
163	23784	1025	1
164	20906	900	1
164	21009	905	1
164	22141	955	1
164	22294	960	1
164	23066	995	1
164	25171	1085	1
164	32444	1400	1
164	61101	2645	1
164	61460	2660	1
164	63507	2750	1
164	68111	2950	1
164	69497	3010	1
164	81719	3540	1
164	82029	3555	1
165	20906	900	896
165	21009	905	897
165	22141	955	943
165	22294	960	944
165	23066	995	975
165	25171	1085	181
165	32444	1400	492
165	61101	2645	1689
165	61460	2660	1696
165	63507	2750	1754
165	68111	2950	1862
165	69497	3010	1606
165	81719	3540	892
165	82029	3555	891
166	20906	900	1
166	21009	905	1
166	22141	955	1
166	22294	960	1
166	23066	995	1
166	25171	1085	1
166	32444	1400	1
166	61101	2645	1
166	61460	2660	1
166	63507	2750	1
166	68111	2950	1
166	69497	3010	1
166	81719	3540	1
166	82029	3555	1
167	21573	930	1
167	24710	1065	1
167	29219	1260	1
167	31622	1365	1
167	38072	1645	1
167	38432	1660	1
167	38535	1665	1
167	39661	1715	1
167	43352	1875	1
167	43709	1890	1
167	44423	1920	1
167	51334	2220	1
167	51797	2240	1
167	53187	2300	1
167	54313	2350	1
167	54416	2355	1
168	21573	930	926
168	24710	1065	1057
168	29219	1260	1248
168	31622	1365	1349
168	38072	1645	1625
168	38432	1660	728
168	38535	1665	597
168	39661	1715	451
168	43352	1875	507
168	43709	1890	242
168	44423	1920	256
168	51334	2220	552
168	51797	2240	524
168	53187	2300	424
168	54313	2350	458
168	54416	2355	431
169	21573	930	1
169	24710	1065	1
169	29219	1260	1
169	31622	1365	1
169	38072	1645	1
169	38432	1660	1
169	38535	1665	1
169	39661	1715	1
169	43352	1875	1
169	43709	1890	1
169	44423	1920	1
169	51334	2220	1
169	51797	2240	1
169	53187	2300	1
169	54313	2350	1
169	54416	2355	1
170	22963	990	1
170	23991	1035	1
170	24454	1055	1
170	24607	1060	1
170	25377	1095	1
170	25835	1115	1
170	78240	3390	1
171	22963	990	986
171	23991	1035	1027
171	24454	1055	1043
171	24607	1060	1044
171	25377	1095	1075
171	25835	1115	123
171	78240	3390	2354
172	22963	990	1
172	23991	1035	1
172	24454	1055	1
172	24607	1060	1
172	25377	1095	1
172	25835	1115	1
172	78240	3390	1
173	28038	1210	1
173	28141	1215	1
173	32291	1395	1
173	53391	2310	1
173	57524	2490	1
173	57987	2510	1
173	58550	2535	1
173	59263	2565	1
173	64326	2785	1
173	67191	2910	1
173	68677	2975	1
173	70060	3035	1
173	70213	3040	1
173	71340	3090	1
173	71443	3095	1
174	28038	1210	1206
174	28141	1215	1207
174	32291	1395	1383
174	53391	2310	2294
174	57524	2490	2470
174	57987	2510	1298
174	58550	2535	1319
174	59263	2565	1169
174	64326	2785	473
174	67191	2910	418
174	68677	2975	463
174	70060	3035	499
174	70213	3040	472
174	71340	3090	302
174	71443	3095	183
175	28038	1210	1
175	28141	1215	1
175	32291	1395	1
175	53391	2310	1
175	57524	2490	1
175	57987	2510	1
175	58550	2535	1
175	59263	2565	1
175	64326	2785	1
175	67191	2910	1
175	68677	2975	1
175	70060	3035	1
175	70213	3040	1
175	71340	3090	1
175	71443	3095	1
176	31981	1380	1
176	39201	1695	1
176	41662	1800	1
176	44734	1935	1
176	48107	2080	1
176	48313	2090	1
176	49031	2120	1
177	31981	1380	1376
177	39201	1695	1687
177	41662	1800	1788
177	44734	1935	1919
177	48107	2080	2060
177	48313	2090	706
177	49031	2120	424
178	31981	1380	1
178	39201	1695	1
178	41662	1800	1
178	44734	1935	1
178	48107	2080	1
178	48313	2090	1
178	49031	2120	1
179	40019	1730	1
179	40738	1760	1
179	41509	1795	1
180	40019	1730	1726
180	40738	1760	1752
180	41509	1795	1783
181	40019	1730	1
181	40738	1760	1
181	41509	1795	1
182	40122	1735	1
182	41866	1810	1
182	42582	1840	1
182	42685	1845	1
182	43606	1885	1
182	44526	1925	1
182	51541	2230	1
182	51644	2235	1
182	52569	2275	1
182	52827	2285	1
182	52930	2290	1
182	55231	2390	1
182	55488	2400	1
182	56608	2450	1
182	59467	2575	1
182	60080	2600	1
182	61666	2670	1
183	40122	1735	1731
183	41866	1810	1802
183	42582	1840	1828
183	42685	1845	1829
183	43606	1885	1865
183	44526	1925	189
183	51541	2230	418
183	51644	2235	391
183	52569	2275	427
183	52827	2285	397
183	52930	2290	362
183	55231	2390	158
183	55488	2400	164
183	56608	2450	174
183	59467	2575	287
183	60080	2600	308
183	61666	2670	278
184	40122	1735	1
184	41866	1810	1
184	42582	1840	1
184	42685	1845	1
184	43606	1885	1
184	44526	1925	1
184	51541	2230	1
184	51644	2235	1
184	52569	2275	1
184	52827	2285	1
184	52930	2290	1
184	55231	2390	1
184	55488	2400	1
184	56608	2450	1
184	59467	2575	1
184	60080	2600	1
184	61666	2670	1
185	45192	1955	1
185	46115	1995	1
185	46268	2000	1
185	47188	2040	1
185	47750	2065	1
185	50156	2170	1
185	50615	2190	1
186	45192	1955	1951
186	46115	1995	1987
186	46268	2000	1988
186	47188	2040	2024
186	47750	2065	2045
186	50156	2170	214
186	50615	2190	194
187	45192	1955	1
187	46115	1995	1
187	46268	2000	1
187	47188	2040	1
187	47750	2065	1
187	50156	2170	1
187	50615	2190	1
188	45806	1980	1
188	46932	2030	1
188	47035	2035	1
188	49594	2145	1
188	53851	2330	1
188	57066	2470	1
188	57627	2495	1
188	57780	2500	1
188	59620	2580	1
188	62025	2685	1
188	63048	2730	1
188	64072	2775	1
188	66270	2870	1
189	45806	1980	1976
189	46932	2030	2022
189	47035	2035	2023
189	49594	2145	2129
189	53851	2330	2310
189	57066	2470	486
189	57627	2495	463
189	57780	2500	464
189	59620	2580	432
189	62025	2685	353
189	63048	2730	258
189	64072	2775	279
189	66270	2870	366
190	45806	1980	1
190	46932	2030	1
190	47035	2035	1
190	49594	2145	1
190	53851	2330	1
190	57066	2470	1
190	57627	2495	1
190	57780	2500	1
190	59620	2580	1
190	62025	2685	1
190	63048	2730	1
190	64072	2775	1
190	66270	2870	1
191	48210	2085	1
191	49491	2140	1
191	49798	2155	1
191	60643	2625	1
191	62485	2705	1
191	62689	2715	1
191	69957	3030	1
192	48210	2085	2081
192	49491	2140	2132
192	49798	2155	2143
192	60643	2625	2609
192	62485	2705	2685
192	62689	2715	627
192	69957	3030	886
193	48210	2085	1
193	49491	2140	1
193	49798	2155	1
193	60643	2625	1
193	62485	2705	1
193	62689	2715	1
193	69957	3030	1
194	52004	2250	1
194	77214	3345	1
195	52004	2250	2246
195	77214	3345	3337
196	52004	2250	1
196	77214	3345	1
197	63610	2755	1
197	68214	2955	1
197	71903	3115	1
198	63610	2755	2751
198	68214	2955	2947
198	71903	3115	3103
199	63610	2755	1
199	68214	2955	1
199	71903	3115	1
200	70421	3050	1
200	73738	3195	1
200	74813	3240	1
200	75576	3275	1
200	78801	3415	1
201	70421	3050	3046
201	73738	3195	3187
201	74813	3240	3228
201	75576	3275	3259
201	78801	3415	3395
202	70421	3050	1
202	73738	3195	1
202	74813	3240	1
202	75576	3275	1
202	78801	3415	1
203	76190	3300	1
203	79159	3430	1
203	81259	3520	1
204	76190	3300	3296
204	79159	3430	3422
204	81259	3520	3508
205	76190	3300	1
205	79159	3430	1
205	81259	3520	1
206	77574	3360	1
206	78343	3395	1
207	77574	3360	3356
207	78343	3395	3387
208	77574	3360	1
208	78343	3395	1

