version 2
run FourthVerification-4-20201214-15:14:40-220628
attr configname FourthVerification
attr datetime 20201214-15:14:40
attr experiment FourthVerification
attr inifile omnetpp.ini
attr iterationvars "$0=3, $1=0.2"
attr iterationvarsf 3,0.2-
attr measurement "$0=3, $1=0.2"
attr network slottedNetwork
attr processid 220628
attr repetition 0
attr replication #0
attr resultdir results
attr runnumber 4
attr seedset 4
param **.numTransmitters 3
param **.numChannels 1
param **.bufferSize 5
param **.sendProbability 0.2
param **.expMean 4s
param **.timeSlotSize 5s
param **.thresh 20s
param **.deterministicInterarrivalTime true
param **.numTransmitters 1
param **.numChannels 1
param **.bufferSize 5
param **.sendProbability 1
param **.expMean 5s
param **.timeSlotSize 5s
param **.thresh 20s
param **.deterministicInterarrivalTime false

vector 0 slottedNetwork.transmitters[0] numPacketCreated:vector ETV
attr source numPacketCreatedSignal
vector 1 slottedNetwork.transmitters[1] numPacketCreated:vector ETV
attr source numPacketCreatedSignal
vector 2 slottedNetwork.transmitters[2] numPacketCreated:vector ETV
attr source numPacketCreatedSignal
vector 3 slottedNetwork.ch throughput:vector ETV
attr source throughputSignal
vector 4 slottedNetwork.receivers[2] numPacketReceived:vector ETV
attr source numPacketReceivedSignal
vector 5 slottedNetwork.receivers[2] responseTime:vector ETV
attr source responseTimeSignal
vector 6 slottedNetwork.receivers[2] threshold:vector ETV
attr source thresholdSignal
vector 7 slottedNetwork.receivers[1] numPacketReceived:vector ETV
attr source numPacketReceivedSignal
vector 8 slottedNetwork.receivers[1] responseTime:vector ETV
attr source responseTimeSignal
vector 9 slottedNetwork.receivers[1] threshold:vector ETV
attr source thresholdSignal
vector 10 slottedNetwork.transmitters[0] numPacketDiscarded:vector ETV
attr source numPacketDiscardedSignal
vector 11 slottedNetwork.transmitters[1] numPacketDiscarded:vector ETV
attr source numPacketDiscardedSignal
vector 12 slottedNetwork.transmitters[2] numPacketDiscarded:vector ETV
attr source numPacketDiscardedSignal
vector 13 slottedNetwork.receivers[0] numPacketReceived:vector ETV
attr source numPacketReceivedSignal
vector 14 slottedNetwork.receivers[0] responseTime:vector ETV
attr source responseTimeSignal
vector 15 slottedNetwork.receivers[0] threshold:vector ETV
attr source thresholdSignal
0	1	4	1
0	8	8	1
0	16	12	1
0	25	16	1
0	29	20	1
0	36	24	1
0	44	28	1
0	53	32	1
0	62	36	1
0	66	40	1
0	73	44	1
0	82	48	1
0	89	52	1
0	96	56	1
0	100	60	1
0	107	64	1
0	115	68	1
0	123	72	1
0	131	76	1
0	135	80	1
0	141	84	1
0	148	88	1
0	155	92	1
0	162	96	1
0	166	100	1
0	173	104	1
0	183	108	1
0	190	112	1
0	198	116	1
0	202	120	1
0	209	124	1
0	216	128	1
0	223	132	1
0	230	136	1
0	234	140	1
0	240	144	1
0	247	148	1
0	256	152	1
0	263	156	1
0	267	160	1
0	274	164	1
0	283	168	1
0	291	172	1
0	299	176	1
0	303	180	1
0	310	184	1
0	319	188	1
0	326	192	1
0	333	196	1
0	337	200	1
0	343	204	1
0	351	208	1
0	359	212	1
0	366	216	1
0	370	220	1
0	376	224	1
0	383	228	1
0	392	232	1
0	399	236	1
0	403	240	1
0	409	244	1
0	416	248	1
0	423	252	1
0	430	256	1
0	434	260	1
0	442	264	1
0	449	268	1
0	456	272	1
0	463	276	1
0	467	280	1
0	474	284	1
0	483	288	1
0	491	292	1
0	498	296	1
0	502	300	1
0	508	304	1
0	515	308	1
0	523	312	1
0	531	316	1
0	535	320	1
0	541	324	1
0	548	328	1
0	555	332	1
0	564	336	1
0	568	340	1
0	574	344	1
0	581	348	1
0	589	352	1
0	597	356	1
0	601	360	1
0	608	364	1
0	617	368	1
0	627	372	1
0	634	376	1
0	638	380	1
0	645	384	1
0	653	388	1
0	661	392	1
0	669	396	1
0	673	400	1
0	680	404	1
0	688	408	1
0	696	412	1
0	705	416	1
0	709	420	1
0	717	424	1
0	725	428	1
0	732	432	1
0	740	436	1
0	744	440	1
0	751	444	1
0	758	448	1
0	765	452	1
0	773	456	1
0	777	460	1
0	784	464	1
0	791	468	1
0	798	472	1
0	805	476	1
0	809	480	1
0	816	484	1
0	825	488	1
0	836	492	1
0	843	496	1
0	847	500	1
0	853	504	1
0	860	508	1
0	868	512	1
0	876	516	1
0	880	520	1
0	887	524	1
0	896	528	1
0	905	532	1
0	913	536	1
0	917	540	1
0	923	544	1
0	931	548	1
0	939	552	1
0	946	556	1
0	950	560	1
0	956	564	1
0	963	568	1
0	970	572	1
0	977	576	1
0	981	580	1
0	987	584	1
0	995	588	1
0	1003	592	1
0	1010	596	1
0	1014	600	1
0	1020	604	1
0	1028	608	1
0	1038	612	1
0	1045	616	1
0	1049	620	1
0	1055	624	1
0	1062	628	1
0	1070	632	1
0	1078	636	1
0	1082	640	1
0	1089	644	1
0	1099	648	1
0	1107	652	1
0	1115	656	1
0	1119	660	1
0	1126	664	1
0	1134	668	1
0	1142	672	1
0	1151	676	1
0	1155	680	1
0	1163	684	1
0	1172	688	1
0	1181	692	1
0	1189	696	1
0	1193	700	1
0	1199	704	1
0	1206	708	1
0	1213	712	1
0	1220	716	1
0	1224	720	1
0	1230	724	1
0	1237	728	1
0	1245	732	1
0	1253	736	1
0	1257	740	1
0	1263	744	1
0	1270	748	1
0	1277	752	1
0	1285	756	1
0	1289	760	1
0	1296	764	1
0	1304	768	1
0	1312	772	1
0	1320	776	1
0	1324	780	1
0	1332	784	1
0	1341	788	1
0	1350	792	1
0	1358	796	1
0	1362	800	1
0	1369	804	1
0	1378	808	1
0	1387	812	1
0	1396	816	1
0	1400	820	1
0	1407	824	1
0	1415	828	1
0	1424	832	1
0	1433	836	1
0	1437	840	1
0	1444	844	1
0	1452	848	1
0	1462	852	1
0	1469	856	1
0	1473	860	1
0	1479	864	1
0	1487	868	1
0	1495	872	1
0	1503	876	1
0	1507	880	1
0	1515	884	1
0	1523	888	1
0	1530	892	1
0	1537	896	1
0	1541	900	1
0	1548	904	1
0	1557	908	1
0	1566	912	1
0	1575	916	1
0	1579	920	1
0	1587	924	1
0	1595	928	1
0	1602	932	1
0	1610	936	1
0	1614	940	1
0	1622	944	1
0	1631	948	1
0	1639	952	1
0	1646	956	1
0	1650	960	1
0	1657	964	1
0	1665	968	1
0	1672	972	1
0	1680	976	1
0	1684	980	1
0	1691	984	1
0	1698	988	1
0	1705	992	1
0	1713	996	1
0	1717	1000	1
0	1725	1004	1
0	1733	1008	1
0	1742	1012	1
0	1749	1016	1
0	1753	1020	1
0	1760	1024	1
0	1769	1028	1
0	1779	1032	1
0	1786	1036	1
0	1790	1040	1
0	1796	1044	1
0	1803	1048	1
0	1810	1052	1
0	1817	1056	1
0	1821	1060	1
0	1828	1064	1
0	1836	1068	1
0	1844	1072	1
0	1854	1076	1
0	1858	1080	1
0	1864	1084	1
0	1871	1088	1
0	1879	1092	1
0	1887	1096	1
0	1891	1100	1
0	1897	1104	1
0	1905	1108	1
0	1914	1112	1
0	1923	1116	1
0	1927	1120	1
0	1935	1124	1
0	1943	1128	1
0	1950	1132	1
0	1957	1136	1
0	1961	1140	1
0	1968	1144	1
0	1977	1148	1
0	1985	1152	1
0	1993	1156	1
0	1997	1160	1
0	2004	1164	1
0	2011	1168	1
0	2018	1172	1
0	2028	1176	1
0	2032	1180	1
0	2038	1184	1
0	2045	1188	1
0	2053	1192	1
0	2062	1196	1
0	2066	1200	1
0	2074	1204	1
0	2082	1208	1
0	2089	1212	1
0	2096	1216	1
0	2100	1220	1
0	2107	1224	1
0	2115	1228	1
0	2123	1232	1
0	2131	1236	1
0	2135	1240	1
0	2143	1244	1
0	2151	1248	1
0	2159	1252	1
0	2166	1256	1
0	2170	1260	1
0	2177	1264	1
0	2185	1268	1
0	2193	1272	1
0	2201	1276	1
0	2205	1280	1
0	2211	1284	1
0	2218	1288	1
0	2225	1292	1
0	2233	1296	1
0	2237	1300	1
0	2244	1304	1
0	2252	1308	1
0	2261	1312	1
0	2269	1316	1
0	2273	1320	1
0	2279	1324	1
0	2287	1328	1
0	2295	1332	1
0	2302	1336	1
0	2306	1340	1
0	2312	1344	1
0	2320	1348	1
0	2328	1352	1
0	2336	1356	1
0	2340	1360	1
0	2348	1364	1
0	2357	1368	1
0	2365	1372	1
0	2374	1376	1
0	2378	1380	1
0	2384	1384	1
0	2391	1388	1
0	2398	1392	1
0	2405	1396	1
0	2409	1400	1
0	2416	1404	1
0	2426	1408	1
0	2433	1412	1
0	2440	1416	1
0	2444	1420	1
0	2450	1424	1
0	2458	1428	1
0	2468	1432	1
0	2475	1436	1
0	2479	1440	1
0	2485	1444	1
0	2492	1448	1
0	2500	1452	1
0	2509	1456	1
0	2513	1460	1
0	2521	1464	1
0	2529	1468	1
0	2537	1472	1
0	2545	1476	1
0	2549	1480	1
0	2555	1484	1
0	2563	1488	1
0	2572	1492	1
0	2580	1496	1
0	2584	1500	1
0	2590	1504	1
0	2598	1508	1
0	2607	1512	1
0	2615	1516	1
0	2619	1520	1
0	2627	1524	1
0	2634	1528	1
0	2641	1532	1
0	2648	1536	1
0	2652	1540	1
0	2658	1544	1
0	2667	1548	1
0	2675	1552	1
0	2684	1556	1
0	2688	1560	1
0	2695	1564	1
0	2703	1568	1
0	2711	1572	1
0	2719	1576	1
0	2723	1580	1
0	2730	1584	1
0	2737	1588	1
0	2744	1592	1
0	2751	1596	1
0	2755	1600	1
0	2762	1604	1
0	2772	1608	1
0	2779	1612	1
0	2787	1616	1
0	2791	1620	1
0	2798	1624	1
0	2805	1628	1
0	2812	1632	1
0	2819	1636	1
0	2823	1640	1
0	2829	1644	1
0	2836	1648	1
0	2843	1652	1
0	2850	1656	1
0	2854	1660	1
0	2861	1664	1
0	2870	1668	1
0	2878	1672	1
0	2885	1676	1
0	2889	1680	1
0	2895	1684	1
0	2903	1688	1
0	2912	1692	1
0	2920	1696	1
0	2924	1700	1
0	2930	1704	1
0	2937	1708	1
0	2944	1712	1
0	2952	1716	1
0	2956	1720	1
0	2964	1724	1
0	2972	1728	1
0	2979	1732	1
0	2986	1736	1
0	2990	1740	1
0	2997	1744	1
0	3006	1748	1
0	3014	1752	1
0	3022	1756	1
0	3026	1760	1
0	3034	1764	1
0	3043	1768	1
0	3052	1772	1
0	3061	1776	1
0	3065	1780	1
0	3072	1784	1
0	3079	1788	1
0	3087	1792	1
0	3096	1796	1
0	3100	1800	1
0	3108	1804	1
0	3117	1808	1
0	3125	1812	1
0	3132	1816	1
0	3136	1820	1
0	3143	1824	1
0	3153	1828	1
0	3161	1832	1
0	3169	1836	1
0	3173	1840	1
0	3179	1844	1
0	3186	1848	1
0	3193	1852	1
0	3202	1856	1
0	3206	1860	1
0	3212	1864	1
0	3219	1868	1
0	3226	1872	1
0	3234	1876	1
0	3238	1880	1
0	3246	1884	1
0	3255	1888	1
0	3263	1892	1
0	3271	1896	1
0	3275	1900	1
0	3282	1904	1
0	3290	1908	1
0	3299	1912	1
0	3307	1916	1
0	3311	1920	1
0	3317	1924	1
0	3324	1928	1
0	3331	1932	1
0	3339	1936	1
0	3343	1940	1
0	3351	1944	1
0	3359	1948	1
0	3367	1952	1
0	3375	1956	1
0	3379	1960	1
0	3385	1964	1
0	3393	1968	1
0	3401	1972	1
0	3409	1976	1
0	3413	1980	1
0	3421	1984	1
0	3430	1988	1
0	3440	1992	1
0	3448	1996	1
0	3452	2000	1
0	3459	2004	1
0	3466	2008	1
0	3473	2012	1
0	3481	2016	1
0	3485	2020	1
0	3493	2024	1
0	3502	2028	1
0	3512	2032	1
0	3520	2036	1
0	3524	2040	1
0	3531	2044	1
0	3538	2048	1
0	3546	2052	1
0	3554	2056	1
0	3558	2060	1
0	3564	2064	1
0	3573	2068	1
0	3580	2072	1
0	3587	2076	1
0	3591	2080	1
0	3597	2084	1
0	3604	2088	1
0	3611	2092	1
0	3618	2096	1
0	3622	2100	1
0	3628	2104	1
0	3635	2108	1
0	3644	2112	1
0	3651	2116	1
0	3655	2120	1
0	3661	2124	1
0	3668	2128	1
0	3675	2132	1
0	3684	2136	1
0	3688	2140	1
0	3695	2144	1
0	3703	2148	1
0	3710	2152	1
0	3717	2156	1
0	3721	2160	1
0	3727	2164	1
0	3734	2168	1
0	3742	2172	1
0	3751	2176	1
0	3755	2180	1
0	3762	2184	1
0	3771	2188	1
0	3778	2192	1
0	3785	2196	1
0	3789	2200	1
0	3795	2204	1
0	3802	2208	1
0	3809	2212	1
0	3817	2216	1
0	3821	2220	1
0	3828	2224	1
0	3835	2228	1
0	3843	2232	1
0	3851	2236	1
0	3855	2240	1
0	3861	2244	1
0	3868	2248	1
0	3876	2252	1
0	3884	2256	1
0	3888	2260	1
0	3894	2264	1
0	3901	2268	1
0	3909	2272	1
0	3919	2276	1
0	3923	2280	1
0	3929	2284	1
0	3936	2288	1
0	3944	2292	1
0	3952	2296	1
0	3956	2300	1
0	3963	2304	1
0	3972	2308	1
0	3981	2312	1
0	3989	2316	1
0	3993	2320	1
0	4000	2324	1
0	4009	2328	1
0	4017	2332	1
0	4024	2336	1
0	4028	2340	1
0	4036	2344	1
0	4043	2348	1
0	4050	2352	1
0	4057	2356	1
0	4061	2360	1
0	4068	2364	1
0	4076	2368	1
0	4083	2372	1
0	4090	2376	1
0	4094	2380	1
0	4100	2384	1
0	4107	2388	1
0	4116	2392	1
0	4123	2396	1
0	4127	2400	1
0	4133	2404	1
0	4140	2408	1
0	4147	2412	1
0	4154	2416	1
0	4158	2420	1
0	4164	2424	1
0	4171	2428	1
0	4178	2432	1
0	4185	2436	1
0	4189	2440	1
0	4196	2444	1
0	4204	2448	1
0	4211	2452	1
0	4218	2456	1
0	4222	2460	1
0	4228	2464	1
0	4236	2468	1
0	4244	2472	1
0	4253	2476	1
0	4257	2480	1
0	4264	2484	1
0	4273	2488	1
0	4281	2492	1
0	4289	2496	1
0	4293	2500	1
0	4300	2504	1
0	4307	2508	1
0	4314	2512	1
0	4322	2516	1
0	4326	2520	1
0	4333	2524	1
0	4340	2528	1
0	4348	2532	1
0	4357	2536	1
0	4361	2540	1
0	4369	2544	1
0	4377	2548	1
0	4385	2552	1
0	4393	2556	1
0	4397	2560	1
0	4404	2564	1
0	4413	2568	1
0	4422	2572	1
0	4431	2576	1
0	4435	2580	1
0	4444	2584	1
0	4451	2588	1
0	4458	2592	1
0	4466	2596	1
0	4470	2600	1
0	4477	2604	1
0	4484	2608	1
0	4491	2612	1
0	4499	2616	1
0	4503	2620	1
0	4510	2624	1
0	4517	2628	1
0	4524	2632	1
0	4532	2636	1
0	4536	2640	1
0	4544	2644	1
0	4552	2648	1
0	4560	2652	1
0	4569	2656	1
0	4573	2660	1
0	4581	2664	1
0	4590	2668	1
0	4598	2672	1
0	4606	2676	1
0	4610	2680	1
0	4618	2684	1
0	4626	2688	1
0	4636	2692	1
0	4643	2696	1
0	4647	2700	1
0	4653	2704	1
0	4660	2708	1
0	4668	2712	1
0	4677	2716	1
0	4681	2720	1
0	4688	2724	1
0	4695	2728	1
0	4702	2732	1
0	4709	2736	1
0	4713	2740	1
0	4720	2744	1
0	4729	2748	1
0	4738	2752	1
0	4748	2756	1
0	4752	2760	1
0	4758	2764	1
0	4765	2768	1
0	4772	2772	1
0	4779	2776	1
0	4783	2780	1
0	4790	2784	1
0	4798	2788	1
0	4808	2792	1
0	4815	2796	1
0	4819	2800	1
0	4825	2804	1
0	4832	2808	1
0	4839	2812	1
0	4847	2816	1
0	4851	2820	1
0	4860	2824	1
0	4867	2828	1
0	4874	2832	1
0	4881	2836	1
0	4885	2840	1
0	4891	2844	1
0	4898	2848	1
0	4905	2852	1
0	4912	2856	1
0	4916	2860	1
0	4922	2864	1
0	4929	2868	1
0	4936	2872	1
0	4945	2876	1
0	4949	2880	1
0	4955	2884	1
0	4962	2888	1
0	4970	2892	1
0	4979	2896	1
0	4983	2900	1
0	4990	2904	1
0	4998	2908	1
0	5006	2912	1
0	5013	2916	1
0	5017	2920	1
0	5024	2924	1
0	5033	2928	1
0	5041	2932	1
0	5050	2936	1
0	5054	2940	1
0	5060	2944	1
0	5067	2948	1
0	5074	2952	1
0	5082	2956	1
0	5086	2960	1
0	5094	2964	1
0	5102	2968	1
0	5111	2972	1
0	5118	2976	1
0	5122	2980	1
0	5129	2984	1
0	5137	2988	1
0	5144	2992	1
0	5151	2996	1
0	5155	3000	1
0	5162	3004	1
0	5171	3008	1
0	5180	3012	1
0	5188	3016	1
0	5192	3020	1
0	5198	3024	1
0	5207	3028	1
0	5214	3032	1
0	5221	3036	1
0	5225	3040	1
0	5232	3044	1
0	5240	3048	1
0	5247	3052	1
0	5254	3056	1
0	5258	3060	1
0	5264	3064	1
0	5271	3068	1
0	5278	3072	1
0	5285	3076	1
0	5289	3080	1
0	5295	3084	1
0	5302	3088	1
0	5309	3092	1
0	5317	3096	1
0	5321	3100	1
0	5329	3104	1
0	5338	3108	1
0	5346	3112	1
0	5353	3116	1
0	5357	3120	1
0	5364	3124	1
0	5373	3128	1
0	5383	3132	1
0	5391	3136	1
0	5395	3140	1
0	5402	3144	1
0	5409	3148	1
0	5416	3152	1
0	5423	3156	1
0	5427	3160	1
0	5434	3164	1
0	5442	3168	1
0	5449	3172	1
0	5456	3176	1
0	5460	3180	1
0	5467	3184	1
0	5475	3188	1
0	5483	3192	1
0	5491	3196	1
0	5495	3200	1
0	5502	3204	1
0	5511	3208	1
0	5519	3212	1
0	5527	3216	1
0	5531	3220	1
0	5538	3224	1
0	5546	3228	1
0	5555	3232	1
0	5563	3236	1
0	5567	3240	1
0	5574	3244	1
0	5583	3248	1
0	5591	3252	1
0	5600	3256	1
0	5604	3260	1
0	5610	3264	1
0	5617	3268	1
0	5624	3272	1
0	5631	3276	1
0	5635	3280	1
0	5642	3284	1
0	5650	3288	1
0	5657	3292	1
0	5665	3296	1
0	5669	3300	1
0	5677	3304	1
0	5687	3308	1
0	5694	3312	1
0	5702	3316	1
0	5706	3320	1
0	5713	3324	1
0	5720	3328	1
0	5727	3332	1
0	5734	3336	1
0	5738	3340	1
0	5745	3344	1
0	5754	3348	1
0	5762	3352	1
0	5769	3356	1
0	5773	3360	1
0	5780	3364	1
0	5789	3368	1
0	5797	3372	1
0	5805	3376	1
0	5809	3380	1
0	5816	3384	1
0	5823	3388	1
0	5830	3392	1
0	5839	3396	1
0	5843	3400	1
0	5849	3404	1
0	5856	3408	1
0	5863	3412	1
0	5870	3416	1
0	5874	3420	1
0	5880	3424	1
0	5887	3428	1
0	5894	3432	1
0	5901	3436	1
0	5905	3440	1
0	5912	3444	1
0	5922	3448	1
0	5929	3452	1
0	5937	3456	1
0	5941	3460	1
0	5948	3464	1
0	5956	3468	1
0	5964	3472	1
0	5972	3476	1
0	5976	3480	1
0	5983	3484	1
0	5992	3488	1
0	6000	3492	1
0	6008	3496	1
0	6012	3500	1
0	6018	3504	1
0	6025	3508	1
0	6033	3512	1
0	6042	3516	1
0	6046	3520	1
0	6053	3524	1
0	6060	3528	1
0	6068	3532	1
0	6079	3536	1
0	6083	3540	1
0	6089	3544	1
0	6096	3548	1
0	6103	3552	1
0	6110	3556	1
0	6114	3560	1
0	6120	3564	1
0	6128	3568	1
0	6136	3572	1
0	6143	3576	1
0	6147	3580	1
0	6153	3584	1
0	6160	3588	1
0	6167	3592	1
0	6175	3596	1
0	6179	3600	1
1	2	4	1
1	9	8	1
1	17	12	1
1	26	16	1
1	30	20	1
1	37	24	1
1	45	28	1
1	54	32	1
1	63	36	1
1	67	40	1
1	74	44	1
1	83	48	1
1	90	52	1
1	97	56	1
1	101	60	1
1	108	64	1
1	116	68	1
1	124	72	1
1	132	76	1
1	136	80	1
1	142	84	1
1	149	88	1
1	156	92	1
1	163	96	1
1	167	100	1
1	174	104	1
1	184	108	1
1	191	112	1
1	199	116	1
1	203	120	1
1	210	124	1
1	217	128	1
1	224	132	1
1	231	136	1
1	235	140	1
1	241	144	1
1	248	148	1
1	257	152	1
1	264	156	1
1	268	160	1
1	275	164	1
1	284	168	1
1	292	172	1
1	300	176	1
1	304	180	1
1	311	184	1
1	320	188	1
1	327	192	1
1	334	196	1
1	338	200	1
1	344	204	1
1	352	208	1
1	360	212	1
1	367	216	1
1	371	220	1
1	377	224	1
1	384	228	1
1	393	232	1
1	400	236	1
1	404	240	1
1	410	244	1
1	417	248	1
1	424	252	1
1	431	256	1
1	435	260	1
1	443	264	1
1	450	268	1
1	457	272	1
1	464	276	1
1	468	280	1
1	475	284	1
1	484	288	1
1	492	292	1
1	499	296	1
1	503	300	1
1	509	304	1
1	516	308	1
1	524	312	1
1	532	316	1
1	536	320	1
1	542	324	1
1	549	328	1
1	556	332	1
1	565	336	1
1	569	340	1
1	575	344	1
1	582	348	1
1	590	352	1
1	598	356	1
1	602	360	1
1	609	364	1
1	618	368	1
1	628	372	1
1	635	376	1
1	639	380	1
1	646	384	1
1	654	388	1
1	662	392	1
1	670	396	1
1	674	400	1
1	681	404	1
1	689	408	1
1	697	412	1
1	706	416	1
1	710	420	1
1	718	424	1
1	726	428	1
1	733	432	1
1	741	436	1
1	745	440	1
1	752	444	1
1	759	448	1
1	766	452	1
1	774	456	1
1	778	460	1
1	785	464	1
1	792	468	1
1	799	472	1
1	806	476	1
1	810	480	1
1	817	484	1
1	826	488	1
1	837	492	1
1	844	496	1
1	848	500	1
1	854	504	1
1	861	508	1
1	869	512	1
1	877	516	1
1	881	520	1
1	888	524	1
1	897	528	1
1	906	532	1
1	914	536	1
1	918	540	1
1	924	544	1
1	932	548	1
1	940	552	1
1	947	556	1
1	951	560	1
1	957	564	1
1	964	568	1
1	971	572	1
1	978	576	1
1	982	580	1
1	988	584	1
1	996	588	1
1	1004	592	1
1	1011	596	1
1	1015	600	1
1	1021	604	1
1	1029	608	1
1	1039	612	1
1	1046	616	1
1	1050	620	1
1	1056	624	1
1	1063	628	1
1	1071	632	1
1	1079	636	1
1	1083	640	1
1	1090	644	1
1	1100	648	1
1	1108	652	1
1	1116	656	1
1	1120	660	1
1	1127	664	1
1	1135	668	1
1	1143	672	1
1	1152	676	1
1	1156	680	1
1	1164	684	1
1	1173	688	1
1	1182	692	1
1	1190	696	1
1	1194	700	1
1	1200	704	1
1	1207	708	1
1	1214	712	1
1	1221	716	1
1	1225	720	1
1	1231	724	1
1	1238	728	1
1	1246	732	1
1	1254	736	1
1	1258	740	1
1	1264	744	1
1	1271	748	1
1	1278	752	1
1	1286	756	1
1	1290	760	1
1	1297	764	1
1	1305	768	1
1	1313	772	1
1	1321	776	1
1	1325	780	1
1	1333	784	1
1	1342	788	1
1	1351	792	1
1	1359	796	1
1	1363	800	1
1	1370	804	1
1	1379	808	1
1	1388	812	1
1	1397	816	1
1	1401	820	1
1	1408	824	1
1	1416	828	1
1	1425	832	1
1	1434	836	1
1	1438	840	1
1	1445	844	1
1	1453	848	1
1	1463	852	1
1	1470	856	1
1	1474	860	1
1	1480	864	1
1	1488	868	1
1	1496	872	1
1	1504	876	1
1	1508	880	1
1	1516	884	1
1	1524	888	1
1	1531	892	1
1	1538	896	1
1	1542	900	1
1	1549	904	1
1	1558	908	1
1	1567	912	1
1	1576	916	1
1	1580	920	1
1	1588	924	1
1	1596	928	1
1	1603	932	1
1	1611	936	1
1	1615	940	1
1	1623	944	1
1	1632	948	1
1	1640	952	1
1	1647	956	1
1	1651	960	1
1	1658	964	1
1	1666	968	1
1	1673	972	1
1	1681	976	1
1	1685	980	1
1	1692	984	1
1	1699	988	1
1	1706	992	1
1	1714	996	1
1	1718	1000	1
1	1726	1004	1
1	1734	1008	1
1	1743	1012	1
1	1750	1016	1
1	1754	1020	1
1	1761	1024	1
1	1770	1028	1
1	1780	1032	1
1	1787	1036	1
1	1791	1040	1
1	1797	1044	1
1	1804	1048	1
1	1811	1052	1
1	1818	1056	1
1	1822	1060	1
1	1829	1064	1
1	1837	1068	1
1	1845	1072	1
1	1855	1076	1
1	1859	1080	1
1	1865	1084	1
1	1872	1088	1
1	1880	1092	1
1	1888	1096	1
1	1892	1100	1
1	1898	1104	1
1	1906	1108	1
1	1915	1112	1
1	1924	1116	1
1	1928	1120	1
1	1936	1124	1
1	1944	1128	1
1	1951	1132	1
1	1958	1136	1
1	1962	1140	1
1	1969	1144	1
1	1978	1148	1
1	1986	1152	1
1	1994	1156	1
1	1998	1160	1
1	2005	1164	1
1	2012	1168	1
1	2019	1172	1
1	2029	1176	1
1	2033	1180	1
1	2039	1184	1
1	2046	1188	1
1	2054	1192	1
1	2063	1196	1
1	2067	1200	1
1	2075	1204	1
1	2083	1208	1
1	2090	1212	1
1	2097	1216	1
1	2101	1220	1
1	2108	1224	1
1	2116	1228	1
1	2124	1232	1
1	2132	1236	1
1	2136	1240	1
1	2144	1244	1
1	2152	1248	1
1	2160	1252	1
1	2167	1256	1
1	2171	1260	1
1	2178	1264	1
1	2186	1268	1
1	2194	1272	1
1	2202	1276	1
1	2206	1280	1
1	2212	1284	1
1	2219	1288	1
1	2226	1292	1
1	2234	1296	1
1	2238	1300	1
1	2245	1304	1
1	2253	1308	1
1	2262	1312	1
1	2270	1316	1
1	2274	1320	1
1	2280	1324	1
1	2288	1328	1
1	2296	1332	1
1	2303	1336	1
1	2307	1340	1
1	2313	1344	1
1	2321	1348	1
1	2329	1352	1
1	2337	1356	1
1	2341	1360	1
1	2349	1364	1
1	2358	1368	1
1	2366	1372	1
1	2375	1376	1
1	2379	1380	1
1	2385	1384	1
1	2392	1388	1
1	2399	1392	1
1	2406	1396	1
1	2410	1400	1
1	2417	1404	1
1	2427	1408	1
1	2434	1412	1
1	2441	1416	1
1	2445	1420	1
1	2451	1424	1
1	2459	1428	1
1	2469	1432	1
1	2476	1436	1
1	2480	1440	1
1	2486	1444	1
1	2493	1448	1
1	2501	1452	1
1	2510	1456	1
1	2514	1460	1
1	2522	1464	1
1	2530	1468	1
1	2538	1472	1
1	2546	1476	1
1	2550	1480	1
1	2556	1484	1
1	2564	1488	1
1	2573	1492	1
1	2581	1496	1
1	2585	1500	1
1	2591	1504	1
1	2599	1508	1
1	2608	1512	1
1	2616	1516	1
1	2620	1520	1
1	2628	1524	1
1	2635	1528	1
1	2642	1532	1
1	2649	1536	1
1	2653	1540	1
1	2659	1544	1
1	2668	1548	1
1	2676	1552	1
1	2685	1556	1
1	2689	1560	1
1	2696	1564	1
1	2704	1568	1
1	2712	1572	1
1	2720	1576	1
1	2724	1580	1
1	2731	1584	1
1	2738	1588	1
1	2745	1592	1
1	2752	1596	1
1	2756	1600	1
1	2763	1604	1
1	2773	1608	1
1	2780	1612	1
1	2788	1616	1
1	2792	1620	1
1	2799	1624	1
1	2806	1628	1
1	2813	1632	1
1	2820	1636	1
1	2824	1640	1
1	2830	1644	1
1	2837	1648	1
1	2844	1652	1
1	2851	1656	1
1	2855	1660	1
1	2862	1664	1
1	2871	1668	1
1	2879	1672	1
1	2886	1676	1
1	2890	1680	1
1	2896	1684	1
1	2904	1688	1
1	2913	1692	1
1	2921	1696	1
1	2925	1700	1
1	2931	1704	1
1	2938	1708	1
1	2945	1712	1
1	2953	1716	1
1	2957	1720	1
1	2965	1724	1
1	2973	1728	1
1	2980	1732	1
1	2987	1736	1
1	2991	1740	1
1	2998	1744	1
1	3007	1748	1
1	3015	1752	1
1	3023	1756	1
1	3027	1760	1
1	3035	1764	1
1	3044	1768	1
1	3053	1772	1
1	3062	1776	1
1	3066	1780	1
1	3073	1784	1
1	3080	1788	1
1	3088	1792	1
1	3097	1796	1
1	3101	1800	1
1	3109	1804	1
1	3118	1808	1
1	3126	1812	1
1	3133	1816	1
1	3137	1820	1
1	3144	1824	1
1	3154	1828	1
1	3162	1832	1
1	3170	1836	1
1	3174	1840	1
1	3180	1844	1
1	3187	1848	1
1	3194	1852	1
1	3203	1856	1
1	3207	1860	1
1	3213	1864	1
1	3220	1868	1
1	3227	1872	1
1	3235	1876	1
1	3239	1880	1
1	3247	1884	1
1	3256	1888	1
1	3264	1892	1
1	3272	1896	1
1	3276	1900	1
1	3283	1904	1
1	3291	1908	1
1	3300	1912	1
1	3308	1916	1
1	3312	1920	1
1	3318	1924	1
1	3325	1928	1
1	3332	1932	1
1	3340	1936	1
1	3344	1940	1
1	3352	1944	1
1	3360	1948	1
1	3368	1952	1
1	3376	1956	1
1	3380	1960	1
1	3386	1964	1
1	3394	1968	1
1	3402	1972	1
1	3410	1976	1
1	3414	1980	1
1	3422	1984	1
1	3431	1988	1
1	3441	1992	1
1	3449	1996	1
1	3453	2000	1
1	3460	2004	1
1	3467	2008	1
1	3474	2012	1
1	3482	2016	1
1	3486	2020	1
1	3494	2024	1
1	3503	2028	1
1	3513	2032	1
1	3521	2036	1
1	3525	2040	1
1	3532	2044	1
1	3539	2048	1
1	3547	2052	1
1	3555	2056	1
1	3559	2060	1
1	3565	2064	1
1	3574	2068	1
1	3581	2072	1
1	3588	2076	1
1	3592	2080	1
1	3598	2084	1
1	3605	2088	1
1	3612	2092	1
1	3619	2096	1
1	3623	2100	1
1	3629	2104	1
1	3636	2108	1
1	3645	2112	1
1	3652	2116	1
1	3656	2120	1
1	3662	2124	1
1	3669	2128	1
1	3676	2132	1
1	3685	2136	1
1	3689	2140	1
1	3696	2144	1
1	3704	2148	1
1	3711	2152	1
1	3718	2156	1
1	3722	2160	1
1	3728	2164	1
1	3735	2168	1
1	3743	2172	1
1	3752	2176	1
1	3756	2180	1
1	3763	2184	1
1	3772	2188	1
1	3779	2192	1
1	3786	2196	1
1	3790	2200	1
1	3796	2204	1
1	3803	2208	1
1	3810	2212	1
1	3818	2216	1
1	3822	2220	1
1	3829	2224	1
1	3836	2228	1
1	3844	2232	1
1	3852	2236	1
1	3856	2240	1
1	3862	2244	1
1	3869	2248	1
1	3877	2252	1
1	3885	2256	1
1	3889	2260	1
1	3895	2264	1
1	3902	2268	1
1	3910	2272	1
1	3920	2276	1
1	3924	2280	1
1	3930	2284	1
1	3937	2288	1
1	3945	2292	1
1	3953	2296	1
1	3957	2300	1
1	3964	2304	1
1	3973	2308	1
1	3982	2312	1
1	3990	2316	1
1	3994	2320	1
1	4001	2324	1
1	4010	2328	1
1	4018	2332	1
1	4025	2336	1
1	4029	2340	1
1	4037	2344	1
1	4044	2348	1
1	4051	2352	1
1	4058	2356	1
1	4062	2360	1
1	4069	2364	1
1	4077	2368	1
1	4084	2372	1
1	4091	2376	1
1	4095	2380	1
1	4101	2384	1
1	4108	2388	1
1	4117	2392	1
1	4124	2396	1
1	4128	2400	1
1	4134	2404	1
1	4141	2408	1
1	4148	2412	1
1	4155	2416	1
1	4159	2420	1
1	4165	2424	1
1	4172	2428	1
1	4179	2432	1
1	4186	2436	1
1	4190	2440	1
1	4197	2444	1
1	4205	2448	1
1	4212	2452	1
1	4219	2456	1
1	4223	2460	1
1	4229	2464	1
1	4237	2468	1
1	4245	2472	1
1	4254	2476	1
1	4258	2480	1
1	4265	2484	1
1	4274	2488	1
1	4282	2492	1
1	4290	2496	1
1	4294	2500	1
1	4301	2504	1
1	4308	2508	1
1	4315	2512	1
1	4323	2516	1
1	4327	2520	1
1	4334	2524	1
1	4341	2528	1
1	4349	2532	1
1	4358	2536	1
1	4362	2540	1
1	4370	2544	1
1	4378	2548	1
1	4386	2552	1
1	4394	2556	1
1	4398	2560	1
1	4405	2564	1
1	4414	2568	1
1	4423	2572	1
1	4432	2576	1
1	4436	2580	1
1	4445	2584	1
1	4452	2588	1
1	4459	2592	1
1	4467	2596	1
1	4471	2600	1
1	4478	2604	1
1	4485	2608	1
1	4492	2612	1
1	4500	2616	1
1	4504	2620	1
1	4511	2624	1
1	4518	2628	1
1	4525	2632	1
1	4533	2636	1
1	4537	2640	1
1	4545	2644	1
1	4553	2648	1
1	4561	2652	1
1	4570	2656	1
1	4574	2660	1
1	4582	2664	1
1	4591	2668	1
1	4599	2672	1
1	4607	2676	1
1	4611	2680	1
1	4619	2684	1
1	4627	2688	1
1	4637	2692	1
1	4644	2696	1
1	4648	2700	1
1	4654	2704	1
1	4661	2708	1
1	4669	2712	1
1	4678	2716	1
1	4682	2720	1
1	4689	2724	1
1	4696	2728	1
1	4703	2732	1
1	4710	2736	1
1	4714	2740	1
1	4721	2744	1
1	4730	2748	1
1	4739	2752	1
1	4749	2756	1
1	4753	2760	1
1	4759	2764	1
1	4766	2768	1
1	4773	2772	1
1	4780	2776	1
1	4784	2780	1
1	4791	2784	1
1	4799	2788	1
1	4809	2792	1
1	4816	2796	1
1	4820	2800	1
1	4826	2804	1
1	4833	2808	1
1	4840	2812	1
1	4848	2816	1
1	4852	2820	1
1	4861	2824	1
1	4868	2828	1
1	4875	2832	1
1	4882	2836	1
1	4886	2840	1
1	4892	2844	1
1	4899	2848	1
1	4906	2852	1
1	4913	2856	1
1	4917	2860	1
1	4923	2864	1
1	4930	2868	1
1	4937	2872	1
1	4946	2876	1
1	4950	2880	1
1	4956	2884	1
1	4963	2888	1
1	4971	2892	1
1	4980	2896	1
1	4984	2900	1
1	4991	2904	1
1	4999	2908	1
1	5007	2912	1
1	5014	2916	1
1	5018	2920	1
1	5025	2924	1
1	5034	2928	1
1	5042	2932	1
1	5051	2936	1
1	5055	2940	1
1	5061	2944	1
1	5068	2948	1
1	5075	2952	1
1	5083	2956	1
1	5087	2960	1
1	5095	2964	1
1	5103	2968	1
1	5112	2972	1
1	5119	2976	1
1	5123	2980	1
1	5130	2984	1
1	5138	2988	1
1	5145	2992	1
1	5152	2996	1
1	5156	3000	1
1	5163	3004	1
1	5172	3008	1
1	5181	3012	1
1	5189	3016	1
1	5193	3020	1
1	5199	3024	1
1	5208	3028	1
1	5215	3032	1
1	5222	3036	1
1	5226	3040	1
1	5233	3044	1
1	5241	3048	1
1	5248	3052	1
1	5255	3056	1
1	5259	3060	1
1	5265	3064	1
1	5272	3068	1
1	5279	3072	1
1	5286	3076	1
1	5290	3080	1
1	5296	3084	1
1	5303	3088	1
1	5310	3092	1
1	5318	3096	1
1	5322	3100	1
1	5330	3104	1
1	5339	3108	1
1	5347	3112	1
1	5354	3116	1
1	5358	3120	1
1	5365	3124	1
1	5374	3128	1
1	5384	3132	1
1	5392	3136	1
1	5396	3140	1
1	5403	3144	1
1	5410	3148	1
1	5417	3152	1
1	5424	3156	1
1	5428	3160	1
1	5435	3164	1
1	5443	3168	1
1	5450	3172	1
1	5457	3176	1
1	5461	3180	1
1	5468	3184	1
1	5476	3188	1
1	5484	3192	1
1	5492	3196	1
1	5496	3200	1
1	5503	3204	1
1	5512	3208	1
1	5520	3212	1
1	5528	3216	1
1	5532	3220	1
1	5539	3224	1
1	5547	3228	1
1	5556	3232	1
1	5564	3236	1
1	5568	3240	1
1	5575	3244	1
1	5584	3248	1
1	5592	3252	1
1	5601	3256	1
1	5605	3260	1
1	5611	3264	1
1	5618	3268	1
1	5625	3272	1
1	5632	3276	1
1	5636	3280	1
1	5643	3284	1
1	5651	3288	1
1	5658	3292	1
1	5666	3296	1
1	5670	3300	1
1	5678	3304	1
1	5688	3308	1
1	5695	3312	1
1	5703	3316	1
1	5707	3320	1
1	5714	3324	1
1	5721	3328	1
1	5728	3332	1
1	5735	3336	1
1	5739	3340	1
1	5746	3344	1
1	5755	3348	1
1	5763	3352	1
1	5770	3356	1
1	5774	3360	1
1	5781	3364	1
1	5790	3368	1
1	5798	3372	1
1	5806	3376	1
1	5810	3380	1
1	5817	3384	1
1	5824	3388	1
1	5831	3392	1
1	5840	3396	1
1	5844	3400	1
1	5850	3404	1
1	5857	3408	1
1	5864	3412	1
1	5871	3416	1
1	5875	3420	1
1	5881	3424	1
1	5888	3428	1
1	5895	3432	1
1	5902	3436	1
1	5906	3440	1
1	5913	3444	1
1	5923	3448	1
1	5930	3452	1
1	5938	3456	1
1	5942	3460	1
1	5949	3464	1
1	5957	3468	1
1	5965	3472	1
1	5973	3476	1
1	5977	3480	1
1	5984	3484	1
1	5993	3488	1
1	6001	3492	1
1	6009	3496	1
1	6013	3500	1
1	6019	3504	1
1	6026	3508	1
1	6034	3512	1
1	6043	3516	1
1	6047	3520	1
1	6054	3524	1
1	6061	3528	1
1	6069	3532	1
1	6080	3536	1
1	6084	3540	1
1	6090	3544	1
1	6097	3548	1
1	6104	3552	1
1	6111	3556	1
1	6115	3560	1
1	6121	3564	1
1	6129	3568	1
1	6137	3572	1
1	6144	3576	1
1	6148	3580	1
1	6154	3584	1
1	6161	3588	1
1	6168	3592	1
1	6176	3596	1
1	6180	3600	1
2	3	4	1
2	10	8	1
2	18	12	1
2	27	16	1
2	31	20	1
2	38	24	1
2	46	28	1
2	55	32	1
2	64	36	1
2	68	40	1
2	75	44	1
2	84	48	1
2	91	52	1
2	98	56	1
2	102	60	1
2	109	64	1
2	117	68	1
2	125	72	1
2	133	76	1
2	137	80	1
2	143	84	1
2	150	88	1
2	157	92	1
2	164	96	1
2	168	100	1
2	175	104	1
2	185	108	1
2	192	112	1
2	200	116	1
2	204	120	1
2	211	124	1
2	218	128	1
2	225	132	1
2	232	136	1
2	236	140	1
2	242	144	1
2	249	148	1
2	258	152	1
2	265	156	1
2	269	160	1
2	276	164	1
2	285	168	1
2	293	172	1
2	301	176	1
2	305	180	1
2	312	184	1
2	321	188	1
2	328	192	1
2	335	196	1
2	339	200	1
2	345	204	1
2	353	208	1
2	361	212	1
2	368	216	1
2	372	220	1
2	378	224	1
2	385	228	1
2	394	232	1
2	401	236	1
2	405	240	1
2	411	244	1
2	418	248	1
2	425	252	1
2	432	256	1
2	436	260	1
2	444	264	1
2	451	268	1
2	458	272	1
2	465	276	1
2	469	280	1
2	476	284	1
2	485	288	1
2	493	292	1
2	500	296	1
2	504	300	1
2	510	304	1
2	517	308	1
2	525	312	1
2	533	316	1
2	537	320	1
2	543	324	1
2	550	328	1
2	557	332	1
2	566	336	1
2	570	340	1
2	576	344	1
2	583	348	1
2	591	352	1
2	599	356	1
2	603	360	1
2	610	364	1
2	619	368	1
2	629	372	1
2	636	376	1
2	640	380	1
2	647	384	1
2	655	388	1
2	663	392	1
2	671	396	1
2	675	400	1
2	682	404	1
2	690	408	1
2	698	412	1
2	707	416	1
2	711	420	1
2	719	424	1
2	727	428	1
2	734	432	1
2	742	436	1
2	746	440	1
2	753	444	1
2	760	448	1
2	767	452	1
2	775	456	1
2	779	460	1
2	786	464	1
2	793	468	1
2	800	472	1
2	807	476	1
2	811	480	1
2	818	484	1
2	827	488	1
2	838	492	1
2	845	496	1
2	849	500	1
2	855	504	1
2	862	508	1
2	870	512	1
2	878	516	1
2	882	520	1
2	889	524	1
2	898	528	1
2	907	532	1
2	915	536	1
2	919	540	1
2	925	544	1
2	933	548	1
2	941	552	1
2	948	556	1
2	952	560	1
2	958	564	1
2	965	568	1
2	972	572	1
2	979	576	1
2	983	580	1
2	989	584	1
2	997	588	1
2	1005	592	1
2	1012	596	1
2	1016	600	1
2	1022	604	1
2	1030	608	1
2	1040	612	1
2	1047	616	1
2	1051	620	1
2	1057	624	1
2	1064	628	1
2	1072	632	1
2	1080	636	1
2	1084	640	1
2	1091	644	1
2	1101	648	1
2	1109	652	1
2	1117	656	1
2	1121	660	1
2	1128	664	1
2	1136	668	1
2	1144	672	1
2	1153	676	1
2	1157	680	1
2	1165	684	1
2	1174	688	1
2	1183	692	1
2	1191	696	1
2	1195	700	1
2	1201	704	1
2	1208	708	1
2	1215	712	1
2	1222	716	1
2	1226	720	1
2	1232	724	1
2	1239	728	1
2	1247	732	1
2	1255	736	1
2	1259	740	1
2	1265	744	1
2	1272	748	1
2	1279	752	1
2	1287	756	1
2	1291	760	1
2	1298	764	1
2	1306	768	1
2	1314	772	1
2	1322	776	1
2	1326	780	1
2	1334	784	1
2	1343	788	1
2	1352	792	1
2	1360	796	1
2	1364	800	1
2	1371	804	1
2	1380	808	1
2	1389	812	1
2	1398	816	1
2	1402	820	1
2	1409	824	1
2	1417	828	1
2	1426	832	1
2	1435	836	1
2	1439	840	1
2	1446	844	1
2	1454	848	1
2	1464	852	1
2	1471	856	1
2	1475	860	1
2	1481	864	1
2	1489	868	1
2	1497	872	1
2	1505	876	1
2	1509	880	1
2	1517	884	1
2	1525	888	1
2	1532	892	1
2	1539	896	1
2	1543	900	1
2	1550	904	1
2	1559	908	1
2	1568	912	1
2	1577	916	1
2	1581	920	1
2	1589	924	1
2	1597	928	1
2	1604	932	1
2	1612	936	1
2	1616	940	1
2	1624	944	1
2	1633	948	1
2	1641	952	1
2	1648	956	1
2	1652	960	1
2	1659	964	1
2	1667	968	1
2	1674	972	1
2	1682	976	1
2	1686	980	1
2	1693	984	1
2	1700	988	1
2	1707	992	1
2	1715	996	1
2	1719	1000	1
2	1727	1004	1
2	1735	1008	1
2	1744	1012	1
2	1751	1016	1
2	1755	1020	1
2	1762	1024	1
2	1771	1028	1
2	1781	1032	1
2	1788	1036	1
2	1792	1040	1
2	1798	1044	1
2	1805	1048	1
2	1812	1052	1
2	1819	1056	1
2	1823	1060	1
2	1830	1064	1
2	1838	1068	1
2	1846	1072	1
2	1856	1076	1
2	1860	1080	1
2	1866	1084	1
2	1873	1088	1
2	1881	1092	1
2	1889	1096	1
2	1893	1100	1
2	1899	1104	1
2	1907	1108	1
2	1916	1112	1
2	1925	1116	1
2	1929	1120	1
2	1937	1124	1
2	1945	1128	1
2	1952	1132	1
2	1959	1136	1
2	1963	1140	1
2	1970	1144	1
2	1979	1148	1
2	1987	1152	1
2	1995	1156	1
2	1999	1160	1
2	2006	1164	1
2	2013	1168	1
2	2020	1172	1
2	2030	1176	1
2	2034	1180	1
2	2040	1184	1
2	2047	1188	1
2	2055	1192	1
2	2064	1196	1
2	2068	1200	1
2	2076	1204	1
2	2084	1208	1
2	2091	1212	1
2	2098	1216	1
2	2102	1220	1
2	2109	1224	1
2	2117	1228	1
2	2125	1232	1
2	2133	1236	1
2	2137	1240	1
2	2145	1244	1
2	2153	1248	1
2	2161	1252	1
2	2168	1256	1
2	2172	1260	1
2	2179	1264	1
2	2187	1268	1
2	2195	1272	1
2	2203	1276	1
2	2207	1280	1
2	2213	1284	1
2	2220	1288	1
2	2227	1292	1
2	2235	1296	1
2	2239	1300	1
2	2246	1304	1
2	2254	1308	1
2	2263	1312	1
2	2271	1316	1
2	2275	1320	1
2	2281	1324	1
2	2289	1328	1
2	2297	1332	1
2	2304	1336	1
2	2308	1340	1
2	2314	1344	1
2	2322	1348	1
2	2330	1352	1
2	2338	1356	1
2	2342	1360	1
2	2350	1364	1
2	2359	1368	1
2	2367	1372	1
2	2376	1376	1
2	2380	1380	1
2	2386	1384	1
2	2393	1388	1
2	2400	1392	1
2	2407	1396	1
2	2411	1400	1
2	2418	1404	1
2	2428	1408	1
2	2435	1412	1
2	2442	1416	1
2	2446	1420	1
2	2452	1424	1
2	2460	1428	1
2	2470	1432	1
2	2477	1436	1
2	2481	1440	1
2	2487	1444	1
2	2494	1448	1
2	2502	1452	1
2	2511	1456	1
2	2515	1460	1
2	2523	1464	1
2	2531	1468	1
2	2539	1472	1
2	2547	1476	1
2	2551	1480	1
2	2557	1484	1
2	2565	1488	1
2	2574	1492	1
2	2582	1496	1
2	2586	1500	1
2	2592	1504	1
2	2600	1508	1
2	2609	1512	1
2	2617	1516	1
2	2621	1520	1
2	2629	1524	1
2	2636	1528	1
2	2643	1532	1
2	2650	1536	1
2	2654	1540	1
2	2660	1544	1
2	2669	1548	1
2	2677	1552	1
2	2686	1556	1
2	2690	1560	1
2	2697	1564	1
2	2705	1568	1
2	2713	1572	1
2	2721	1576	1
2	2725	1580	1
2	2732	1584	1
2	2739	1588	1
2	2746	1592	1
2	2753	1596	1
2	2757	1600	1
2	2764	1604	1
2	2774	1608	1
2	2781	1612	1
2	2789	1616	1
2	2793	1620	1
2	2800	1624	1
2	2807	1628	1
2	2814	1632	1
2	2821	1636	1
2	2825	1640	1
2	2831	1644	1
2	2838	1648	1
2	2845	1652	1
2	2852	1656	1
2	2856	1660	1
2	2863	1664	1
2	2872	1668	1
2	2880	1672	1
2	2887	1676	1
2	2891	1680	1
2	2897	1684	1
2	2905	1688	1
2	2914	1692	1
2	2922	1696	1
2	2926	1700	1
2	2932	1704	1
2	2939	1708	1
2	2946	1712	1
2	2954	1716	1
2	2958	1720	1
2	2966	1724	1
2	2974	1728	1
2	2981	1732	1
2	2988	1736	1
2	2992	1740	1
2	2999	1744	1
2	3008	1748	1
2	3016	1752	1
2	3024	1756	1
2	3028	1760	1
2	3036	1764	1
2	3045	1768	1
2	3054	1772	1
2	3063	1776	1
2	3067	1780	1
2	3074	1784	1
2	3081	1788	1
2	3089	1792	1
2	3098	1796	1
2	3102	1800	1
2	3110	1804	1
2	3119	1808	1
2	3127	1812	1
2	3134	1816	1
2	3138	1820	1
2	3145	1824	1
2	3155	1828	1
2	3163	1832	1
2	3171	1836	1
2	3175	1840	1
2	3181	1844	1
2	3188	1848	1
2	3195	1852	1
2	3204	1856	1
2	3208	1860	1
2	3214	1864	1
2	3221	1868	1
2	3228	1872	1
2	3236	1876	1
2	3240	1880	1
2	3248	1884	1
2	3257	1888	1
2	3265	1892	1
2	3273	1896	1
2	3277	1900	1
2	3284	1904	1
2	3292	1908	1
2	3301	1912	1
2	3309	1916	1
2	3313	1920	1
2	3319	1924	1
2	3326	1928	1
2	3333	1932	1
2	3341	1936	1
2	3345	1940	1
2	3353	1944	1
2	3361	1948	1
2	3369	1952	1
2	3377	1956	1
2	3381	1960	1
2	3387	1964	1
2	3395	1968	1
2	3403	1972	1
2	3411	1976	1
2	3415	1980	1
2	3423	1984	1
2	3432	1988	1
2	3442	1992	1
2	3450	1996	1
2	3454	2000	1
2	3461	2004	1
2	3468	2008	1
2	3475	2012	1
2	3483	2016	1
2	3487	2020	1
2	3495	2024	1
2	3504	2028	1
2	3514	2032	1
2	3522	2036	1
2	3526	2040	1
2	3533	2044	1
2	3540	2048	1
2	3548	2052	1
2	3556	2056	1
2	3560	2060	1
2	3566	2064	1
2	3575	2068	1
2	3582	2072	1
2	3589	2076	1
2	3593	2080	1
2	3599	2084	1
2	3606	2088	1
2	3613	2092	1
2	3620	2096	1
2	3624	2100	1
2	3630	2104	1
2	3637	2108	1
2	3646	2112	1
2	3653	2116	1
2	3657	2120	1
2	3663	2124	1
2	3670	2128	1
2	3677	2132	1
2	3686	2136	1
2	3690	2140	1
2	3697	2144	1
2	3705	2148	1
2	3712	2152	1
2	3719	2156	1
2	3723	2160	1
2	3729	2164	1
2	3736	2168	1
2	3744	2172	1
2	3753	2176	1
2	3757	2180	1
2	3764	2184	1
2	3773	2188	1
2	3780	2192	1
2	3787	2196	1
2	3791	2200	1
2	3797	2204	1
2	3804	2208	1
2	3811	2212	1
2	3819	2216	1
2	3823	2220	1
2	3830	2224	1
2	3837	2228	1
2	3845	2232	1
2	3853	2236	1
2	3857	2240	1
2	3863	2244	1
2	3870	2248	1
2	3878	2252	1
2	3886	2256	1
2	3890	2260	1
2	3896	2264	1
2	3903	2268	1
2	3911	2272	1
2	3921	2276	1
2	3925	2280	1
2	3931	2284	1
2	3938	2288	1
2	3946	2292	1
2	3954	2296	1
2	3958	2300	1
2	3965	2304	1
2	3974	2308	1
2	3983	2312	1
2	3991	2316	1
2	3995	2320	1
2	4002	2324	1
2	4011	2328	1
2	4019	2332	1
2	4026	2336	1
2	4030	2340	1
2	4038	2344	1
2	4045	2348	1
2	4052	2352	1
2	4059	2356	1
2	4063	2360	1
2	4070	2364	1
2	4078	2368	1
2	4085	2372	1
2	4092	2376	1
2	4096	2380	1
2	4102	2384	1
2	4109	2388	1
2	4118	2392	1
2	4125	2396	1
2	4129	2400	1
2	4135	2404	1
2	4142	2408	1
2	4149	2412	1
2	4156	2416	1
2	4160	2420	1
2	4166	2424	1
2	4173	2428	1
2	4180	2432	1
2	4187	2436	1
2	4191	2440	1
2	4198	2444	1
2	4206	2448	1
2	4213	2452	1
2	4220	2456	1
2	4224	2460	1
2	4230	2464	1
2	4238	2468	1
2	4246	2472	1
2	4255	2476	1
2	4259	2480	1
2	4266	2484	1
2	4275	2488	1
2	4283	2492	1
2	4291	2496	1
2	4295	2500	1
2	4302	2504	1
2	4309	2508	1
2	4316	2512	1
2	4324	2516	1
2	4328	2520	1
2	4335	2524	1
2	4342	2528	1
2	4350	2532	1
2	4359	2536	1
2	4363	2540	1
2	4371	2544	1
2	4379	2548	1
2	4387	2552	1
2	4395	2556	1
2	4399	2560	1
2	4406	2564	1
2	4415	2568	1
2	4424	2572	1
2	4433	2576	1
2	4437	2580	1
2	4446	2584	1
2	4453	2588	1
2	4460	2592	1
2	4468	2596	1
2	4472	2600	1
2	4479	2604	1
2	4486	2608	1
2	4493	2612	1
2	4501	2616	1
2	4505	2620	1
2	4512	2624	1
2	4519	2628	1
2	4526	2632	1
2	4534	2636	1
2	4538	2640	1
2	4546	2644	1
2	4554	2648	1
2	4562	2652	1
2	4571	2656	1
2	4575	2660	1
2	4583	2664	1
2	4592	2668	1
2	4600	2672	1
2	4608	2676	1
2	4612	2680	1
2	4620	2684	1
2	4628	2688	1
2	4638	2692	1
2	4645	2696	1
2	4649	2700	1
2	4655	2704	1
2	4662	2708	1
2	4670	2712	1
2	4679	2716	1
2	4683	2720	1
2	4690	2724	1
2	4697	2728	1
2	4704	2732	1
2	4711	2736	1
2	4715	2740	1
2	4722	2744	1
2	4731	2748	1
2	4740	2752	1
2	4750	2756	1
2	4754	2760	1
2	4760	2764	1
2	4767	2768	1
2	4774	2772	1
2	4781	2776	1
2	4785	2780	1
2	4792	2784	1
2	4800	2788	1
2	4810	2792	1
2	4817	2796	1
2	4821	2800	1
2	4827	2804	1
2	4834	2808	1
2	4841	2812	1
2	4849	2816	1
2	4853	2820	1
2	4862	2824	1
2	4869	2828	1
2	4876	2832	1
2	4883	2836	1
2	4887	2840	1
2	4893	2844	1
2	4900	2848	1
2	4907	2852	1
2	4914	2856	1
2	4918	2860	1
2	4924	2864	1
2	4931	2868	1
2	4938	2872	1
2	4947	2876	1
2	4951	2880	1
2	4957	2884	1
2	4964	2888	1
2	4972	2892	1
2	4981	2896	1
2	4985	2900	1
2	4992	2904	1
2	5000	2908	1
2	5008	2912	1
2	5015	2916	1
2	5019	2920	1
2	5026	2924	1
2	5035	2928	1
2	5043	2932	1
2	5052	2936	1
2	5056	2940	1
2	5062	2944	1
2	5069	2948	1
2	5076	2952	1
2	5084	2956	1
2	5088	2960	1
2	5096	2964	1
2	5104	2968	1
2	5113	2972	1
2	5120	2976	1
2	5124	2980	1
2	5131	2984	1
2	5139	2988	1
2	5146	2992	1
2	5153	2996	1
2	5157	3000	1
2	5164	3004	1
2	5173	3008	1
2	5182	3012	1
2	5190	3016	1
2	5194	3020	1
2	5200	3024	1
2	5209	3028	1
2	5216	3032	1
2	5223	3036	1
2	5227	3040	1
2	5234	3044	1
2	5242	3048	1
2	5249	3052	1
2	5256	3056	1
2	5260	3060	1
2	5266	3064	1
2	5273	3068	1
2	5280	3072	1
2	5287	3076	1
2	5291	3080	1
2	5297	3084	1
2	5304	3088	1
2	5311	3092	1
2	5319	3096	1
2	5323	3100	1
2	5331	3104	1
2	5340	3108	1
2	5348	3112	1
2	5355	3116	1
2	5359	3120	1
2	5366	3124	1
2	5375	3128	1
2	5385	3132	1
2	5393	3136	1
2	5397	3140	1
2	5404	3144	1
2	5411	3148	1
2	5418	3152	1
2	5425	3156	1
2	5429	3160	1
2	5436	3164	1
2	5444	3168	1
2	5451	3172	1
2	5458	3176	1
2	5462	3180	1
2	5469	3184	1
2	5477	3188	1
2	5485	3192	1
2	5493	3196	1
2	5497	3200	1
2	5504	3204	1
2	5513	3208	1
2	5521	3212	1
2	5529	3216	1
2	5533	3220	1
2	5540	3224	1
2	5548	3228	1
2	5557	3232	1
2	5565	3236	1
2	5569	3240	1
2	5576	3244	1
2	5585	3248	1
2	5593	3252	1
2	5602	3256	1
2	5606	3260	1
2	5612	3264	1
2	5619	3268	1
2	5626	3272	1
2	5633	3276	1
2	5637	3280	1
2	5644	3284	1
2	5652	3288	1
2	5659	3292	1
2	5667	3296	1
2	5671	3300	1
2	5679	3304	1
2	5689	3308	1
2	5696	3312	1
2	5704	3316	1
2	5708	3320	1
2	5715	3324	1
2	5722	3328	1
2	5729	3332	1
2	5736	3336	1
2	5740	3340	1
2	5747	3344	1
2	5756	3348	1
2	5764	3352	1
2	5771	3356	1
2	5775	3360	1
2	5782	3364	1
2	5791	3368	1
2	5799	3372	1
2	5807	3376	1
2	5811	3380	1
2	5818	3384	1
2	5825	3388	1
2	5832	3392	1
2	5841	3396	1
2	5845	3400	1
2	5851	3404	1
2	5858	3408	1
2	5865	3412	1
2	5872	3416	1
2	5876	3420	1
2	5882	3424	1
2	5889	3428	1
2	5896	3432	1
2	5903	3436	1
2	5907	3440	1
2	5914	3444	1
2	5924	3448	1
2	5931	3452	1
2	5939	3456	1
2	5943	3460	1
2	5950	3464	1
2	5958	3468	1
2	5966	3472	1
2	5974	3476	1
2	5978	3480	1
2	5985	3484	1
2	5994	3488	1
2	6002	3492	1
2	6010	3496	1
2	6014	3500	1
2	6020	3504	1
2	6027	3508	1
2	6035	3512	1
2	6044	3516	1
2	6048	3520	1
2	6055	3524	1
2	6062	3528	1
2	6070	3532	1
2	6081	3536	1
2	6085	3540	1
2	6091	3544	1
2	6098	3548	1
2	6105	3552	1
2	6112	3556	1
2	6116	3560	1
2	6122	3564	1
2	6130	3568	1
2	6138	3572	1
2	6145	3576	1
2	6149	3580	1
2	6155	3584	1
2	6162	3588	1
2	6169	3592	1
2	6177	3596	1
2	6181	3600	1
3	4	5	0
3	11	10	0
3	19	15	1
3	28	20	1
3	39	25	0
3	47	30	1
3	56	35	1
3	65	40	1
3	76	45	0
3	85	50	0
3	92	55	0
3	99	60	0
3	110	65	1
3	118	70	0
3	126	75	1
3	134	80	0
3	144	85	0
3	151	90	0
3	158	95	0
3	165	100	0
3	176	105	1
3	186	110	0
3	193	115	0
3	201	120	1
3	212	125	0
3	219	130	0
3	226	135	0
3	233	140	0
3	243	145	0
3	250	150	0
3	259	155	0
3	266	160	0
3	277	165	1
3	286	170	1
3	294	175	0
3	302	180	1
3	313	185	0
3	322	190	0
3	329	195	0
3	336	200	0
3	346	205	0
3	354	210	1
3	362	215	0
3	369	220	0
3	379	225	0
3	386	230	0
3	395	235	0
3	402	240	0
3	412	245	0
3	419	250	0
3	426	255	0
3	433	260	0
3	445	265	0
3	452	270	0
3	459	275	0
3	466	280	0
3	477	285	1
3	486	290	1
3	494	295	0
3	501	300	0
3	511	305	0
3	518	310	0
3	526	315	1
3	534	320	0
3	544	325	0
3	551	330	0
3	558	335	0
3	567	340	0
3	577	345	0
3	584	350	0
3	592	355	1
3	600	360	0
3	611	365	1
3	620	370	1
3	630	375	0
3	637	380	0
3	648	385	1
3	656	390	0
3	664	395	1
3	672	400	0
3	683	405	1
3	691	410	0
3	699	415	1
3	708	420	1
3	720	425	1
3	728	430	0
3	735	435	0
3	743	440	1
3	754	445	0
3	761	450	0
3	768	455	0
3	776	460	1
3	787	465	0
3	794	470	0
3	801	475	0
3	808	480	0
3	819	485	1
3	828	490	1
3	839	495	0
3	846	500	0
3	856	505	0
3	863	510	0
3	871	515	1
3	879	520	0
3	890	525	1
3	899	530	1
3	908	535	1
3	916	540	0
3	926	545	0
3	934	550	1
3	942	555	0
3	949	560	0
3	959	565	0
3	966	570	0
3	973	575	0
3	980	580	0
3	990	585	0
3	998	590	1
3	1006	595	0
3	1013	600	0
3	1023	605	0
3	1031	610	1
3	1041	615	0
3	1048	620	0
3	1058	625	0
3	1065	630	0
3	1073	635	1
3	1081	640	0
3	1092	645	1
3	1102	650	0
3	1110	655	1
3	1118	660	0
3	1129	665	1
3	1137	670	0
3	1145	675	1
3	1154	680	1
3	1166	685	1
3	1175	690	1
3	1184	695	1
3	1192	700	0
3	1202	705	0
3	1209	710	0
3	1216	715	0
3	1223	720	0
3	1233	725	0
3	1240	730	0
3	1248	735	1
3	1256	740	0
3	1266	745	0
3	1273	750	0
3	1280	755	0
3	1288	760	1
3	1299	765	0
3	1307	770	1
3	1315	775	0
3	1323	780	1
3	1335	785	1
3	1344	790	1
3	1353	795	1
3	1361	800	0
3	1372	805	1
3	1381	810	1
3	1390	815	1
3	1399	820	1
3	1410	825	0
3	1418	830	1
3	1427	835	1
3	1436	840	1
3	1447	845	0
3	1455	850	1
3	1465	855	0
3	1472	860	0
3	1482	865	0
3	1490	870	1
3	1498	875	0
3	1506	880	1
3	1518	885	1
3	1526	890	0
3	1533	895	0
3	1540	900	0
3	1551	905	1
3	1560	910	1
3	1569	915	1
3	1578	920	1
3	1590	925	1
3	1598	930	0
3	1605	935	0
3	1613	940	1
3	1625	945	1
3	1634	950	1
3	1642	955	0
3	1649	960	0
3	1660	965	1
3	1668	970	0
3	1675	975	0
3	1683	980	1
3	1694	985	0
3	1701	990	0
3	1708	995	0
3	1716	1000	1
3	1728	1005	1
3	1736	1010	0
3	1745	1015	0
3	1752	1020	0
3	1763	1025	1
3	1772	1030	1
3	1782	1035	0
3	1789	1040	0
3	1799	1045	0
3	1806	1050	0
3	1813	1055	0
3	1820	1060	0
3	1831	1065	1
3	1839	1070	0
3	1847	1075	1
3	1857	1080	0
3	1867	1085	0
3	1874	1090	0
3	1882	1095	1
3	1890	1100	0
3	1900	1105	0
3	1908	1110	1
3	1917	1115	1
3	1926	1120	1
3	1938	1125	1
3	1946	1130	0
3	1953	1135	0
3	1960	1140	0
3	1971	1145	1
3	1980	1150	1
3	1988	1155	0
3	1996	1160	1
3	2007	1165	0
3	2014	1170	0
3	2021	1175	0
3	2031	1180	0
3	2041	1185	0
3	2048	1190	0
3	2056	1195	1
3	2065	1200	1
3	2077	1205	1
3	2085	1210	0
3	2092	1215	0
3	2099	1220	0
3	2110	1225	1
3	2118	1230	0
3	2126	1235	1
3	2134	1240	0
3	2146	1245	0
3	2154	1250	1
3	2162	1255	0
3	2169	1260	0
3	2180	1265	1
3	2188	1270	0
3	2196	1275	1
3	2204	1280	0
3	2214	1285	0
3	2221	1290	0
3	2228	1295	0
3	2236	1300	1
3	2247	1305	0
3	2255	1310	1
3	2264	1315	1
3	2272	1320	0
3	2282	1325	0
3	2290	1330	1
3	2298	1335	0
3	2305	1340	0
3	2315	1345	0
3	2323	1350	1
3	2331	1355	0
3	2339	1360	1
3	2351	1365	1
3	2360	1370	1
3	2368	1375	0
3	2377	1380	0
3	2387	1385	0
3	2394	1390	0
3	2401	1395	0
3	2408	1400	0
3	2419	1405	1
3	2429	1410	0
3	2436	1415	0
3	2443	1420	0
3	2453	1425	0
3	2461	1430	1
3	2471	1435	0
3	2478	1440	0
3	2488	1445	0
3	2495	1450	0
3	2503	1455	1
3	2512	1460	1
3	2524	1465	1
3	2532	1470	0
3	2540	1475	1
3	2548	1480	0
3	2558	1485	0
3	2566	1490	1
3	2575	1495	1
3	2583	1500	0
3	2593	1505	0
3	2601	1510	1
3	2610	1515	1
3	2618	1520	0
3	2630	1525	0
3	2637	1530	0
3	2644	1535	0
3	2651	1540	0
3	2661	1545	0
3	2670	1550	0
3	2678	1555	1
3	2687	1560	1
3	2698	1565	0
3	2706	1570	1
3	2714	1575	0
3	2722	1580	1
3	2733	1585	0
3	2740	1590	0
3	2747	1595	0
3	2754	1600	0
3	2765	1605	1
3	2775	1610	0
3	2782	1615	0
3	2790	1620	1
3	2801	1625	0
3	2808	1630	0
3	2815	1635	0
3	2822	1640	0
3	2832	1645	0
3	2839	1650	0
3	2846	1655	0
3	2853	1660	0
3	2864	1665	1
3	2873	1670	1
3	2881	1675	0
3	2888	1680	0
3	2898	1685	0
3	2906	1690	1
3	2915	1695	1
3	2923	1700	0
3	2933	1705	0
3	2940	1710	0
3	2947	1715	0
3	2955	1720	1
3	2967	1725	1
3	2975	1730	0
3	2982	1735	0
3	2989	1740	0
3	3000	1745	1
3	3009	1750	1
3	3017	1755	0
3	3025	1760	1
3	3037	1765	1
3	3046	1770	1
3	3055	1775	1
3	3064	1780	1
3	3075	1785	0
3	3082	1790	0
3	3090	1795	1
3	3099	1800	1
3	3111	1805	1
3	3120	1810	1
3	3128	1815	0
3	3135	1820	0
3	3146	1825	1
3	3156	1830	0
3	3164	1835	1
3	3172	1840	0
3	3182	1845	0
3	3189	1850	0
3	3196	1855	0
3	3205	1860	0
3	3215	1865	0
3	3222	1870	0
3	3229	1875	0
3	3237	1880	1
3	3249	1885	1
3	3258	1890	1
3	3266	1895	0
3	3274	1900	1
3	3285	1905	0
3	3293	1910	1
3	3302	1915	1
3	3310	1920	0
3	3320	1925	0
3	3327	1930	0
3	3334	1935	0
3	3342	1940	1
3	3354	1945	1
3	3362	1950	0
3	3370	1955	1
3	3378	1960	0
3	3388	1965	0
3	3396	1970	1
3	3404	1975	0
3	3412	1980	1
3	3424	1985	1
3	3433	1990	1
3	3443	1995	0
3	3451	2000	1
3	3462	2005	0
3	3469	2010	0
3	3476	2015	0
3	3484	2020	1
3	3496	2025	1
3	3505	2030	1
3	3515	2035	0
3	3523	2040	1
3	3534	2045	0
3	3541	2050	0
3	3549	2055	1
3	3557	2060	0
3	3567	2065	0
3	3576	2070	0
3	3583	2075	0
3	3590	2080	0
3	3600	2085	0
3	3607	2090	0
3	3614	2095	0
3	3621	2100	0
3	3631	2105	0
3	3638	2110	0
3	3647	2115	0
3	3654	2120	0
3	3664	2125	0
3	3671	2130	0
3	3678	2135	0
3	3687	2140	0
3	3698	2145	1
3	3706	2150	0
3	3713	2155	0
3	3720	2160	0
3	3730	2165	0
3	3737	2170	0
3	3745	2175	1
3	3754	2180	1
3	3765	2185	0
3	3774	2190	0
3	3781	2195	0
3	3788	2200	0
3	3798	2205	0
3	3805	2210	0
3	3812	2215	0
3	3820	2220	1
3	3831	2225	0
3	3838	2230	0
3	3846	2235	1
3	3854	2240	0
3	3864	2245	0
3	3871	2250	0
3	3879	2255	1
3	3887	2260	0
3	3897	2265	0
3	3904	2270	0
3	3912	2275	1
3	3922	2280	0
3	3932	2285	0
3	3939	2290	0
3	3947	2295	1
3	3955	2300	0
3	3966	2305	1
3	3975	2310	1
3	3984	2315	1
3	3992	2320	0
3	4003	2325	1
3	4012	2330	1
3	4020	2335	0
3	4027	2340	0
3	4039	2345	0
3	4046	2350	0
3	4053	2355	0
3	4060	2360	0
3	4071	2365	1
3	4079	2370	0
3	4086	2375	0
3	4093	2380	0
3	4103	2385	0
3	4110	2390	0
3	4119	2395	0
3	4126	2400	0
3	4136	2405	0
3	4143	2410	0
3	4150	2415	0
3	4157	2420	0
3	4167	2425	0
3	4174	2430	0
3	4181	2435	0
3	4188	2440	0
3	4199	2445	1
3	4207	2450	0
3	4214	2455	0
3	4221	2460	0
3	4231	2465	0
3	4239	2470	1
3	4247	2475	0
3	4256	2480	0
3	4267	2485	1
3	4276	2490	1
3	4284	2495	0
3	4292	2500	1
3	4303	2505	0
3	4310	2510	0
3	4317	2515	0
3	4325	2520	1
3	4336	2525	0
3	4343	2530	0
3	4351	2535	1
3	4360	2540	1
3	4372	2545	1
3	4380	2550	0
3	4388	2555	1
3	4396	2560	0
3	4407	2565	1
3	4416	2570	1
3	4425	2575	1
3	4434	2580	1
3	4447	2585	0
3	4454	2590	0
3	4461	2595	0
3	4469	2600	1
3	4480	2605	0
3	4487	2610	0
3	4494	2615	0
3	4502	2620	1
3	4513	2625	0
3	4520	2630	0
3	4527	2635	0
3	4535	2640	1
3	4547	2645	1
3	4555	2650	0
3	4563	2655	1
3	4572	2660	1
3	4584	2665	1
3	4593	2670	1
3	4601	2675	0
3	4609	2680	1
3	4621	2685	1
3	4629	2690	0
3	4639	2695	0
3	4646	2700	0
3	4656	2705	0
3	4663	2710	0
3	4671	2715	1
3	4680	2720	1
3	4691	2725	0
3	4698	2730	0
3	4705	2735	0
3	4712	2740	0
3	4723	2745	1
3	4732	2750	1
3	4741	2755	1
3	4751	2760	0
3	4761	2765	0
3	4768	2770	0
3	4775	2775	0
3	4782	2780	0
3	4793	2785	1
3	4801	2790	0
3	4811	2795	0
3	4818	2800	0
3	4828	2805	0
3	4835	2810	0
3	4842	2815	0
3	4850	2820	1
3	4863	2825	0
3	4870	2830	0
3	4877	2835	0
3	4884	2840	0
3	4894	2845	0
3	4901	2850	0
3	4908	2855	0
3	4915	2860	0
3	4925	2865	0
3	4932	2870	0
3	4939	2875	0
3	4948	2880	0
3	4958	2885	0
3	4965	2890	0
3	4973	2895	1
3	4982	2900	1
3	4993	2905	0
3	5001	2910	1
3	5009	2915	0
3	5016	2920	0
3	5027	2925	1
3	5036	2930	1
3	5044	2935	0
3	5053	2940	0
3	5063	2945	0
3	5070	2950	0
3	5077	2955	0
3	5085	2960	1
3	5097	2965	1
3	5105	2970	0
3	5114	2975	0
3	5121	2980	0
3	5132	2985	1
3	5140	2990	0
3	5147	2995	0
3	5154	3000	0
3	5165	3005	1
3	5174	3010	1
3	5183	3015	1
3	5191	3020	0
3	5201	3025	0
3	5210	3030	0
3	5217	3035	0
3	5224	3040	0
3	5235	3045	1
3	5243	3050	0
3	5250	3055	0
3	5257	3060	0
3	5267	3065	0
3	5274	3070	0
3	5281	3075	0
3	5288	3080	0
3	5298	3085	0
3	5305	3090	0
3	5312	3095	0
3	5320	3100	1
3	5332	3105	1
3	5341	3110	1
3	5349	3115	0
3	5356	3120	0
3	5367	3125	1
3	5376	3130	1
3	5386	3135	0
3	5394	3140	1
3	5405	3145	0
3	5412	3150	0
3	5419	3155	0
3	5426	3160	0
3	5437	3165	1
3	5445	3170	0
3	5452	3175	0
3	5459	3180	0
3	5470	3185	1
3	5478	3190	0
3	5486	3195	1
3	5494	3200	0
3	5505	3205	1
3	5514	3210	1
3	5522	3215	0
3	5530	3220	1
3	5541	3225	0
3	5549	3230	1
3	5558	3235	1
3	5566	3240	0
3	5577	3245	1
3	5586	3250	1
3	5594	3255	0
3	5603	3260	0
3	5613	3265	0
3	5620	3270	0
3	5627	3275	0
3	5634	3280	0
3	5645	3285	1
3	5653	3290	0
3	5660	3295	0
3	5668	3300	1
3	5680	3305	1
3	5690	3310	0
3	5697	3315	0
3	5705	3320	1
3	5716	3325	0
3	5723	3330	0
3	5730	3335	0
3	5737	3340	0
3	5748	3345	1
3	5757	3350	1
3	5765	3355	0
3	5772	3360	0
3	5783	3365	1
3	5792	3370	1
3	5800	3375	0
3	5808	3380	1
3	5819	3385	0
3	5826	3390	0
3	5833	3395	0
3	5842	3400	0
3	5852	3405	0
3	5859	3410	0
3	5866	3415	0
3	5873	3420	0
3	5883	3425	0
3	5890	3430	0
3	5897	3435	0
3	5904	3440	0
3	5915	3445	1
3	5925	3450	0
3	5932	3455	0
3	5940	3460	1
3	5951	3465	0
3	5959	3470	1
3	5967	3475	0
3	5975	3480	1
3	5986	3485	0
3	5995	3490	0
3	6003	3495	1
3	6011	3500	0
3	6021	3505	0
3	6028	3510	0
3	6036	3515	1
3	6045	3520	1
3	6056	3525	0
3	6063	3530	0
3	6071	3535	1
3	6082	3540	0
3	6092	3545	0
3	6099	3550	0
3	6106	3555	0
3	6113	3560	0
3	6123	3565	0
3	6131	3570	1
3	6139	3575	0
3	6146	3580	0
3	6156	3585	0
3	6163	3590	0
3	6170	3595	0
3	6178	3600	1
4	21	15	1
4	206	120	1
4	594	355	1
4	622	370	1
4	666	395	1
4	892	525	1
4	901	530	1
4	1075	635	1
4	1131	665	1
4	1250	735	1
4	1337	785	1
4	1355	795	1
4	1374	805	1
4	1392	815	1
4	1457	850	1
4	1520	885	1
4	1562	910	1
4	1774	1030	1
4	1884	1095	1
4	1910	1110	1
4	1940	1125	1
4	2079	1205	1
4	2156	1250	1
4	2266	1315	1
4	2325	1350	1
4	2542	1475	1
4	2612	1515	1
4	2908	1690	1
4	3039	1765	1
4	3069	1780	1
4	3092	1795	1
4	3104	1800	1
4	3122	1810	1
4	3148	1825	1
4	3166	1835	1
4	3242	1880	1
4	3251	1885	1
4	3260	1890	1
4	3347	1940	1
4	3426	1985	1
4	3489	2020	1
4	3507	2030	1
4	3528	2040	1
4	3700	2145	1
4	3747	2175	1
4	3759	2180	1
4	3825	2220	1
4	3881	2255	1
4	3914	2275	1
4	3949	2295	1
4	3986	2315	1
4	4269	2485	1
4	4278	2490	1
4	4353	2535	1
4	4418	2570	1
4	4427	2575	1
4	4439	2580	1
4	4474	2600	1
4	4540	2640	1
4	4595	2670	1
4	4673	2715	1
4	4685	2720	1
4	4987	2900	1
4	5003	2910	1
4	5334	3105	1
4	5369	3125	1
4	5472	3185	1
4	5488	3195	1
4	5507	3205	1
4	5516	3210	1
4	5551	3230	1
4	5647	3285	1
4	5673	3300	1
4	5682	3305	1
4	5750	3345	1
4	5813	3380	1
4	6183	3600	1
5	21	15	11
5	206	120	112
5	594	355	343
5	622	370	354
5	666	395	375
5	892	525	501
5	901	530	406
5	1075	635	279
5	1131	665	293
5	1250	735	339
5	1337	785	257
5	1355	795	263
5	1374	805	169
5	1392	815	147
5	1457	850	114
5	1520	885	97
5	1562	910	114
5	1774	1030	222
5	1884	1095	279
5	1910	1110	258
5	1940	1125	237
5	2079	1205	293
5	2156	1250	218
5	2266	1315	219
5	2325	1350	238
5	2542	1475	347
5	2612	1515	307
5	2908	1690	438
5	3039	1765	449
5	3069	1780	428
5	3092	1795	319
5	3104	1800	284
5	3122	1810	118
5	3148	1825	57
5	3166	1835	51
5	3242	1880	84
5	3251	1885	81
5	3260	1890	78
5	3347	1940	112
5	3426	1985	149
5	3489	2020	136
5	3507	2030	142
5	3528	2040	148
5	3700	2145	201
5	3747	2175	187
5	3759	2180	156
5	3825	2220	188
5	3881	2255	211
5	3914	2275	127
5	3949	2295	119
5	3986	2315	131
5	4269	2485	261
5	4278	2490	234
5	4353	2535	259
5	4418	2570	274
5	4427	2575	259
5	4439	2580	92
5	4474	2600	108
5	4540	2640	104
5	4595	2670	98
5	4673	2715	139
5	4685	2720	136
5	4987	2900	296
5	5003	2910	266
5	5334	3105	433
5	5369	3125	409
5	5472	3185	461
5	5488	3195	291
5	5507	3205	293
5	5516	3210	102
5	5551	3230	102
5	5647	3285	97
5	5673	3300	104
5	5682	3305	97
5	5750	3345	133
5	5813	3380	148
5	6183	3600	312
6	21	15	0
6	206	120	1
6	594	355	1
6	622	370	1
6	666	395	1
6	892	525	1
6	901	530	1
6	1075	635	1
6	1131	665	1
6	1250	735	1
6	1337	785	1
6	1355	795	1
6	1374	805	1
6	1392	815	1
6	1457	850	1
6	1520	885	1
6	1562	910	1
6	1774	1030	1
6	1884	1095	1
6	1910	1110	1
6	1940	1125	1
6	2079	1205	1
6	2156	1250	1
6	2266	1315	1
6	2325	1350	1
6	2542	1475	1
6	2612	1515	1
6	2908	1690	1
6	3039	1765	1
6	3069	1780	1
6	3092	1795	1
6	3104	1800	1
6	3122	1810	1
6	3148	1825	1
6	3166	1835	1
6	3242	1880	1
6	3251	1885	1
6	3260	1890	1
6	3347	1940	1
6	3426	1985	1
6	3489	2020	1
6	3507	2030	1
6	3528	2040	1
6	3700	2145	1
6	3747	2175	1
6	3759	2180	1
6	3825	2220	1
6	3881	2255	1
6	3914	2275	1
6	3949	2295	1
6	3986	2315	1
6	4269	2485	1
6	4278	2490	1
6	4353	2535	1
6	4418	2570	1
6	4427	2575	1
6	4439	2580	1
6	4474	2600	1
6	4540	2640	1
6	4595	2670	1
6	4673	2715	1
6	4685	2720	1
6	4987	2900	1
6	5003	2910	1
6	5334	3105	1
6	5369	3125	1
6	5472	3185	1
6	5488	3195	1
6	5507	3205	1
6	5516	3210	1
6	5551	3230	1
6	5647	3285	1
6	5673	3300	1
6	5682	3305	1
6	5750	3345	1
6	5813	3380	1
6	6183	3600	1
7	33	20	1
7	49	30	1
7	70	40	1
7	178	105	1
7	356	210	1
7	528	315	1
7	650	385	1
7	685	405	1
7	781	460	1
7	821	485	1
7	830	490	1
7	873	515	1
7	1000	590	1
7	1094	645	1
7	1186	695	1
7	1404	820	1
7	1420	830	1
7	1429	835	1
7	1441	840	1
7	1553	905	1
7	1583	920	1
7	1688	980	1
7	1721	1000	1
7	1730	1005	1
7	1919	1115	1
7	2058	1195	1
7	2070	1200	1
7	2112	1225	1
7	2182	1265	1
7	2257	1310	1
7	2505	1455	1
7	2526	1465	1
7	2680	1555	1
7	2692	1560	1
7	2708	1570	1
7	2727	1580	1
7	2767	1605	1
7	2960	1720	1
7	2969	1725	1
7	3002	1745	1
7	3011	1750	1
7	3030	1760	1
7	3113	1805	1
7	3295	1910	1
7	3304	1915	1
7	3356	1945	1
7	3398	1970	1
7	3417	1980	1
7	3435	1990	1
7	3456	2000	1
7	3968	2305	1
7	3977	2310	1
7	4014	2330	1
7	4201	2445	1
7	4297	2500	1
7	4330	2520	1
7	4365	2540	1
7	4390	2555	1
7	4507	2620	1
7	4549	2645	1
7	4614	2680	1
7	4743	2755	1
7	4975	2895	1
7	5029	2925	1
7	5038	2930	1
7	5185	3015	1
7	5325	3100	1
7	5399	3140	1
7	5535	3220	1
7	5560	3235	1
7	5579	3245	1
7	5588	3250	1
7	5710	3320	1
7	5785	3365	1
7	5945	3460	1
7	5961	3470	1
7	6005	3495	1
7	6038	3515	1
7	6050	3520	1
7	6073	3535	1
7	6133	3570	1
8	33	20	16
8	49	30	22
8	70	40	28
8	178	105	89
8	356	210	190
8	528	315	291
8	650	385	353
8	685	405	361
8	781	460	352
8	821	485	273
8	830	490	174
8	873	515	127
8	1000	590	182
8	1094	645	181
8	1186	695	207
8	1404	820	328
8	1420	830	314
8	1429	835	243
8	1441	840	192
8	1553	905	209
8	1583	920	96
8	1688	980	148
8	1721	1000	164
8	1730	1005	161
8	1919	1115	207
8	2058	1195	271
8	2070	1200	216
8	2112	1225	221
8	2182	1265	257
8	2257	1310	194
8	2505	1455	259
8	2526	1465	261
8	2680	1555	327
8	2692	1560	292
8	2708	1570	258
8	2727	1580	124
8	2767	1605	137
8	2960	1720	164
8	2969	1725	161
8	3002	1745	173
8	3011	1750	166
8	3030	1760	152
8	3113	1805	81
8	3295	1910	182
8	3304	1915	167
8	3356	1945	193
8	3398	1970	206
8	3417	1980	172
8	3435	1990	78
8	3456	2000	84
8	3968	2305	357
8	3977	2310	338
8	4014	2330	346
8	4201	2445	453
8	4297	2500	496
8	4330	2520	212
8	4365	2540	228
8	4390	2555	223
8	4507	2620	172
8	4549	2645	141
8	4614	2680	156
8	4743	2755	211
8	4975	2895	339
8	5029	2925	301
8	5038	2930	282
8	5185	3015	331
8	5325	3100	344
8	5399	3140	244
8	5535	3220	292
8	5560	3235	303
8	5579	3245	229
8	5588	3250	146
8	5710	3320	176
8	5785	3365	141
8	5945	3460	224
8	5961	3470	222
8	6005	3495	243
8	6038	3515	191
8	6050	3520	152
8	6073	3535	71
8	6133	3570	98
9	33	20	0
9	49	30	1
9	70	40	1
9	178	105	1
9	356	210	1
9	528	315	1
9	650	385	1
9	685	405	1
9	781	460	1
9	821	485	1
9	830	490	1
9	873	515	1
9	1000	590	1
9	1094	645	1
9	1186	695	1
9	1404	820	1
9	1420	830	1
9	1429	835	1
9	1441	840	1
9	1553	905	1
9	1583	920	1
9	1688	980	1
9	1721	1000	1
9	1730	1005	1
9	1919	1115	1
9	2058	1195	1
9	2070	1200	1
9	2112	1225	1
9	2182	1265	1
9	2257	1310	1
9	2505	1455	1
9	2526	1465	1
9	2680	1555	1
9	2692	1560	1
9	2708	1570	1
9	2727	1580	1
9	2767	1605	1
9	2960	1720	1
9	2969	1725	1
9	3002	1745	1
9	3011	1750	1
9	3030	1760	1
9	3113	1805	1
9	3295	1910	1
9	3304	1915	1
9	3356	1945	1
9	3398	1970	1
9	3417	1980	1
9	3435	1990	1
9	3456	2000	1
9	3968	2305	1
9	3977	2310	1
9	4014	2330	1
9	4201	2445	1
9	4297	2500	1
9	4330	2520	1
9	4365	2540	1
9	4390	2555	1
9	4507	2620	1
9	4549	2645	1
9	4614	2680	1
9	4743	2755	1
9	4975	2895	1
9	5029	2925	1
9	5038	2930	1
9	5185	3015	1
9	5325	3100	1
9	5399	3140	1
9	5535	3220	1
9	5560	3235	1
9	5579	3245	1
9	5588	3250	1
9	5710	3320	1
9	5785	3365	1
9	5945	3460	1
9	5961	3470	1
9	6005	3495	1
9	6038	3515	1
9	6050	3520	1
9	6073	3535	1
9	6133	3570	1
10	36	24	1
10	44	28	1
10	53	32	1
10	66	40	1
10	73	44	1
10	82	48	1
10	89	52	1
10	96	56	1
10	100	60	1
10	107	64	1
10	123	72	1
10	135	80	1
10	141	84	1
10	148	88	1
10	155	92	1
10	162	96	1
10	166	100	1
10	173	104	1
10	183	108	1
10	190	112	1
10	198	116	1
10	202	120	1
10	209	124	1
10	216	128	1
10	223	132	1
10	230	136	1
10	234	140	1
10	240	144	1
10	247	148	1
10	256	152	1
10	263	156	1
10	267	160	1
10	274	164	1
10	299	176	1
10	303	180	1
10	319	188	1
10	326	192	1
10	333	196	1
10	337	200	1
10	343	204	1
10	351	208	1
10	359	212	1
10	366	216	1
10	370	220	1
10	376	224	1
10	383	228	1
10	392	232	1
10	399	236	1
10	403	240	1
10	409	244	1
10	416	248	1
10	423	252	1
10	430	256	1
10	434	260	1
10	442	264	1
10	449	268	1
10	456	272	1
10	463	276	1
10	467	280	1
10	474	284	1
10	498	296	1
10	502	300	1
10	508	304	1
10	515	308	1
10	523	312	1
10	531	316	1
10	535	320	1
10	541	324	1
10	548	328	1
10	555	332	1
10	564	336	1
10	568	340	1
10	574	344	1
10	581	348	1
10	589	352	1
10	597	356	1
10	601	360	1
10	608	364	1
10	627	372	1
10	634	376	1
10	638	380	1
10	645	384	1
10	653	388	1
10	661	392	1
10	669	396	1
10	673	400	1
10	680	404	1
10	688	408	1
10	696	412	1
10	709	420	1
10	732	432	1
10	740	436	1
10	744	440	1
10	758	448	1
10	765	452	1
10	773	456	1
10	777	460	1
10	784	464	1
10	791	468	1
10	798	472	1
10	805	476	1
10	809	480	1
10	816	484	1
10	825	488	1
10	836	492	1
10	843	496	1
10	847	500	1
10	853	504	1
10	860	508	1
10	868	512	1
10	876	516	1
10	880	520	1
10	887	524	1
10	896	528	1
10	905	532	1
10	917	540	1
10	923	544	1
10	931	548	1
10	946	556	1
10	950	560	1
10	956	564	1
10	963	568	1
10	970	572	1
10	977	576	1
10	981	580	1
10	987	584	1
10	995	588	1
10	1003	592	1
10	1010	596	1
10	1014	600	1
10	1020	604	1
10	1028	608	1
10	1045	616	1
10	1049	620	1
10	1055	624	1
10	1062	628	1
10	1070	632	1
10	1078	636	1
10	1082	640	1
10	1089	644	1
10	1099	648	1
10	1107	652	1
10	1119	660	1
10	1126	664	1
10	1134	668	1
10	1142	672	1
10	1155	680	1
10	1189	696	1
10	1193	700	1
10	1199	704	1
10	1206	708	1
10	1213	712	1
10	1220	716	1
10	1224	720	1
10	1230	724	1
10	1237	728	1
10	1245	732	1
10	1253	736	1
10	1257	740	1
10	1263	744	1
10	1270	748	1
10	1277	752	1
10	1285	756	1
10	1289	760	1
10	1304	768	1
10	1320	776	1
10	1324	780	1
10	1341	788	1
10	1358	796	1
10	1362	800	1
10	1369	804	1
10	1378	808	1
10	1396	816	1
10	1400	820	1
10	1407	824	1
10	1415	828	1
10	1424	832	1
10	1433	836	1
10	1437	840	1
10	1444	844	1
10	1452	848	1
10	1462	852	1
10	1469	856	1
10	1473	860	1
10	1479	864	1
10	1487	868	1
10	1503	876	1
10	1507	880	1
10	1523	888	1
10	1530	892	1
10	1537	896	1
10	1541	900	1
10	1548	904	1
10	1557	908	1
10	1566	912	1
10	1579	920	1
10	1587	924	1
10	1602	932	1
10	1610	936	1
10	1614	940	1
10	1646	956	1
10	1650	960	1
10	1657	964	1
10	1672	972	1
10	1680	976	1
10	1684	980	1
10	1691	984	1
10	1698	988	1
10	1705	992	1
10	1713	996	1
10	1717	1000	1
10	1725	1004	1
10	1733	1008	1
10	1742	1012	1
10	1749	1016	1
10	1753	1020	1
10	1760	1024	1
10	1779	1032	1
10	1786	1036	1
10	1790	1040	1
10	1796	1044	1
10	1803	1048	1
10	1810	1052	1
10	1817	1056	1
10	1821	1060	1
10	1828	1064	1
10	1844	1072	1
10	1858	1080	1
10	1864	1084	1
10	1871	1088	1
10	1879	1092	1
10	1887	1096	1
10	1891	1100	1
10	1897	1104	1
10	1905	1108	1
10	1914	1112	1
10	1923	1116	1
10	1927	1120	1
10	1943	1128	1
10	1950	1132	1
10	1957	1136	1
10	1961	1140	1
10	1968	1144	1
10	1993	1156	1
10	1997	1160	1
10	2011	1168	1
10	2018	1172	1
10	2028	1176	1
10	2032	1180	1
10	2038	1184	1
10	2045	1188	1
10	2053	1192	1
10	2062	1196	1
10	2066	1200	1
10	2074	1204	1
10	2082	1208	1
10	2089	1212	1
10	2096	1216	1
10	2100	1220	1
10	2107	1224	1
10	2115	1228	1
10	2123	1232	1
10	2135	1240	1
10	2143	1244	1
10	2151	1248	1
10	2159	1252	1
10	2166	1256	1
10	2170	1260	1
10	2177	1264	1
10	2185	1268	1
10	2193	1272	1
10	2205	1280	1
10	2211	1284	1
10	2218	1288	1
10	2225	1292	1
10	2233	1296	1
10	2237	1300	1
10	2252	1308	1
10	2261	1312	1
10	2269	1316	1
10	2273	1320	1
10	2279	1324	1
10	2287	1328	1
10	2302	1336	1
10	2306	1340	1
10	2312	1344	1
10	2320	1348	1
10	2328	1352	1
10	2336	1356	1
10	2340	1360	1
10	2374	1376	1
10	2378	1380	1
10	2384	1384	1
10	2391	1388	1
10	2398	1392	1
10	2405	1396	1
10	2409	1400	1
10	2416	1404	1
10	2433	1412	1
10	2440	1416	1
10	2444	1420	1
10	2450	1424	1
10	2458	1428	1
10	2475	1436	1
10	2479	1440	1
10	2485	1444	1
10	2492	1448	1
10	2500	1452	1
10	2509	1456	1
10	2513	1460	1
10	2529	1468	1
10	2537	1472	1
10	2545	1476	1
10	2549	1480	1
10	2555	1484	1
10	2563	1488	1
10	2584	1500	1
10	2590	1504	1
10	2598	1508	1
10	2615	1516	1
10	2619	1520	1
10	2627	1524	1
10	2634	1528	1
10	2641	1532	1
10	2648	1536	1
10	2652	1540	1
10	2658	1544	1
10	2667	1548	1
10	2675	1552	1
10	2684	1556	1
10	2688	1560	1
10	2695	1564	1
10	2703	1568	1
10	2711	1572	1
10	2719	1576	1
10	2723	1580	1
10	2730	1584	1
10	2737	1588	1
10	2744	1592	1
10	2751	1596	1
10	2755	1600	1
10	2762	1604	1
10	2772	1608	1
10	2779	1612	1
10	2787	1616	1
10	2791	1620	1
10	2805	1628	1
10	2812	1632	1
10	2819	1636	1
10	2823	1640	1
10	2829	1644	1
10	2836	1648	1
10	2843	1652	1
10	2850	1656	1
10	2854	1660	1
10	2861	1664	1
10	2885	1676	1
10	2889	1680	1
10	2895	1684	1
10	2903	1688	1
10	2912	1692	1
10	2924	1700	1
10	2930	1704	1
10	2937	1708	1
10	2944	1712	1
10	2952	1716	1
10	2956	1720	1
10	2964	1724	1
10	2972	1728	1
10	2979	1732	1
10	2986	1736	1
10	2990	1740	1
10	2997	1744	1
10	3006	1748	1
10	3014	1752	1
10	3022	1756	1
10	3026	1760	1
10	3034	1764	1
10	3043	1768	1
10	3065	1780	1
10	3072	1784	1
10	3079	1788	1
10	3087	1792	1
10	3096	1796	1
10	3100	1800	1
10	3108	1804	1
10	3117	1808	1
10	3125	1812	1
10	3132	1816	1
10	3136	1820	1
10	3143	1824	1
10	3153	1828	1
10	3161	1832	1
10	3169	1836	1
10	3173	1840	1
10	3179	1844	1
10	3186	1848	1
10	3193	1852	1
10	3202	1856	1
10	3206	1860	1
10	3212	1864	1
10	3219	1868	1
10	3226	1872	1
10	3234	1876	1
10	3238	1880	1
10	3246	1884	1
10	3255	1888	1
10	3263	1892	1
10	3271	1896	1
10	3275	1900	1
10	3290	1908	1
10	3299	1912	1
10	3307	1916	1
10	3311	1920	1
10	3317	1924	1
10	3324	1928	1
10	3331	1932	1
10	3339	1936	1
10	3343	1940	1
10	3351	1944	1
10	3359	1948	1
10	3367	1952	1
10	3379	1960	1
10	3385	1964	1
10	3393	1968	1
10	3401	1972	1
10	3409	1976	1
10	3413	1980	1
10	3421	1984	1
10	3430	1988	1
10	3440	1992	1
10	3448	1996	1
10	3452	2000	1
10	3459	2004	1
10	3466	2008	1
10	3473	2012	1
10	3481	2016	1
10	3485	2020	1
10	3493	2024	1
10	3512	2032	1
10	3520	2036	1
10	3524	2040	1
10	3531	2044	1
10	3538	2048	1
10	3546	2052	1
10	3558	2060	1
10	3564	2064	1
10	3573	2068	1
10	3580	2072	1
10	3587	2076	1
10	3591	2080	1
10	3597	2084	1
10	3604	2088	1
10	3611	2092	1
10	3618	2096	1
10	3622	2100	1
10	3628	2104	1
10	3635	2108	1
10	3644	2112	1
10	3651	2116	1
10	3655	2120	1
10	3661	2124	1
10	3668	2128	1
10	3675	2132	1
10	3684	2136	1
10	3688	2140	1
10	3695	2144	1
10	3703	2148	1
10	3710	2152	1
10	3717	2156	1
10	3721	2160	1
10	3727	2164	1
10	3734	2168	1
10	3742	2172	1
10	3751	2176	1
10	3755	2180	1
10	3762	2184	1
10	3771	2188	1
10	3778	2192	1
10	3785	2196	1
10	3789	2200	1
10	3795	2204	1
10	3802	2208	1
10	3809	2212	1
10	3817	2216	1
10	3821	2220	1
10	3828	2224	1
10	3835	2228	1
10	3843	2232	1
10	3855	2240	1
10	3861	2244	1
10	3868	2248	1
10	3876	2252	1
10	3884	2256	1
10	3888	2260	1
10	3894	2264	1
10	3901	2268	1
10	3909	2272	1
10	3919	2276	1
10	3923	2280	1
10	3929	2284	1
10	3936	2288	1
10	3944	2292	1
10	3952	2296	1
10	3956	2300	1
10	3963	2304	1
10	3972	2308	1
10	3981	2312	1
10	3989	2316	1
10	3993	2320	1
10	4000	2324	1
10	4017	2332	1
10	4024	2336	1
10	4028	2340	1
10	4036	2344	1
10	4043	2348	1
10	4050	2352	1
10	4057	2356	1
10	4061	2360	1
10	4068	2364	1
10	4083	2372	1
10	4090	2376	1
10	4094	2380	1
10	4100	2384	1
10	4107	2388	1
10	4116	2392	1
10	4123	2396	1
10	4127	2400	1
10	4133	2404	1
10	4140	2408	1
10	4147	2412	1
10	4154	2416	1
10	4158	2420	1
10	4164	2424	1
10	4171	2428	1
10	4178	2432	1
10	4185	2436	1
10	4189	2440	1
10	4196	2444	1
10	4204	2448	1
10	4211	2452	1
10	4218	2456	1
10	4222	2460	1
10	4228	2464	1
10	4236	2468	1
10	4253	2476	1
10	4257	2480	1
10	4264	2484	1
10	4273	2488	1
10	4281	2492	1
10	4289	2496	1
10	4293	2500	1
10	4300	2504	1
10	4307	2508	1
10	4314	2512	1
10	4322	2516	1
10	4326	2520	1
10	4333	2524	1
10	4340	2528	1
10	4348	2532	1
10	4357	2536	1
10	4361	2540	1
10	4369	2544	1
10	4385	2552	1
10	4393	2556	1
10	4397	2560	1
10	4404	2564	1
10	4422	2572	1
10	4431	2576	1
10	4435	2580	1
10	4444	2584	1
10	4451	2588	1
10	4458	2592	1
10	4466	2596	1
10	4470	2600	1
10	4477	2604	1
10	4484	2608	1
10	4491	2612	1
10	4499	2616	1
10	4503	2620	1
10	4510	2624	1
10	4517	2628	1
10	4524	2632	1
10	4532	2636	1
10	4536	2640	1
10	4544	2644	1
10	4552	2648	1
10	4560	2652	1
10	4573	2660	1
10	4598	2672	1
10	4606	2676	1
10	4610	2680	1
10	4618	2684	1
10	4636	2692	1
10	4643	2696	1
10	4647	2700	1
10	4653	2704	1
10	4660	2708	1
10	4668	2712	1
10	4677	2716	1
10	4681	2720	1
10	4688	2724	1
10	4695	2728	1
10	4702	2732	1
10	4709	2736	1
10	4713	2740	1
10	4720	2744	1
10	4748	2756	1
10	4752	2760	1
10	4758	2764	1
10	4765	2768	1
10	4772	2772	1
10	4779	2776	1
10	4783	2780	1
10	4790	2784	1
10	4808	2792	1
10	4815	2796	1
10	4819	2800	1
10	4825	2804	1
10	4832	2808	1
10	4839	2812	1
10	4847	2816	1
10	4851	2820	1
10	4867	2828	1
10	4874	2832	1
10	4881	2836	1
10	4885	2840	1
10	4891	2844	1
10	4898	2848	1
10	4905	2852	1
10	4912	2856	1
10	4916	2860	1
10	4922	2864	1
10	4929	2868	1
10	4936	2872	1
10	4945	2876	1
10	4949	2880	1
10	4955	2884	1
10	4962	2888	1
10	4970	2892	1
10	4979	2896	1
10	4983	2900	1
10	4990	2904	1
10	4998	2908	1
10	5006	2912	1
10	5013	2916	1
10	5017	2920	1
10	5024	2924	1
10	5033	2928	1
10	5041	2932	1
10	5050	2936	1
10	5054	2940	1
10	5060	2944	1
10	5067	2948	1
10	5074	2952	1
10	5082	2956	1
10	5086	2960	1
10	5111	2972	1
10	5118	2976	1
10	5122	2980	1
10	5129	2984	1
10	5144	2992	1
10	5151	2996	1
10	5155	3000	1
10	5162	3004	1
10	5188	3016	1
10	5192	3020	1
10	5198	3024	1
10	5207	3028	1
10	5214	3032	1
10	5221	3036	1
10	5225	3040	1
10	5232	3044	1
10	5247	3052	1
10	5254	3056	1
10	5258	3060	1
10	5264	3064	1
10	5271	3068	1
10	5278	3072	1
10	5285	3076	1
10	5289	3080	1
10	5295	3084	1
10	5302	3088	1
10	5309	3092	1
10	5317	3096	1
10	5321	3100	1
10	5329	3104	1
10	5338	3108	1
10	5353	3116	1
10	5357	3120	1
10	5364	3124	1
10	5373	3128	1
10	5391	3136	1
10	5395	3140	1
10	5402	3144	1
10	5409	3148	1
10	5416	3152	1
10	5423	3156	1
10	5427	3160	1
10	5434	3164	1
10	5449	3172	1
10	5456	3176	1
10	5460	3180	1
10	5467	3184	1
10	5475	3188	1
10	5483	3192	1
10	5491	3196	1
10	5495	3200	1
10	5502	3204	1
10	5511	3208	1
10	5519	3212	1
10	5527	3216	1
10	5531	3220	1
10	5538	3224	1
10	5546	3228	1
10	5555	3232	1
10	5563	3236	1
10	5567	3240	1
10	5574	3244	1
10	5583	3248	1
10	5591	3252	1
10	5600	3256	1
10	5604	3260	1
10	5610	3264	1
10	5617	3268	1
10	5624	3272	1
10	5631	3276	1
10	5635	3280	1
10	5642	3284	1
10	5650	3288	1
10	5657	3292	1
10	5665	3296	1
10	5669	3300	1
10	5677	3304	1
10	5687	3308	1
10	5694	3312	1
10	5702	3316	1
10	5706	3320	1
10	5713	3324	1
10	5720	3328	1
10	5727	3332	1
10	5734	3336	1
10	5738	3340	1
10	5745	3344	1
10	5754	3348	1
10	5769	3356	1
10	5773	3360	1
10	5780	3364	1
10	5789	3368	1
10	5805	3376	1
10	5809	3380	1
10	5816	3384	1
10	5823	3388	1
10	5830	3392	1
10	5839	3396	1
10	5843	3400	1
10	5849	3404	1
10	5856	3408	1
10	5863	3412	1
10	5870	3416	1
10	5874	3420	1
10	5880	3424	1
10	5887	3428	1
10	5894	3432	1
10	5901	3436	1
10	5905	3440	1
10	5912	3444	1
10	5929	3452	1
10	5937	3456	1
10	5941	3460	1
10	5948	3464	1
10	5956	3468	1
10	5964	3472	1
10	5972	3476	1
10	5976	3480	1
10	5992	3488	1
10	6000	3492	1
10	6008	3496	1
10	6012	3500	1
10	6018	3504	1
10	6025	3508	1
10	6033	3512	1
10	6042	3516	1
10	6046	3520	1
10	6053	3524	1
10	6060	3528	1
10	6068	3532	1
10	6079	3536	1
10	6083	3540	1
10	6089	3544	1
10	6096	3548	1
10	6103	3552	1
10	6110	3556	1
10	6114	3560	1
10	6120	3564	1
10	6128	3568	1
10	6136	3572	1
10	6143	3576	1
10	6147	3580	1
10	6153	3584	1
10	6160	3588	1
10	6167	3592	1
10	6175	3596	1
10	6179	3600	1
11	45	28	1
11	63	36	1
11	67	40	1
11	83	48	1
11	90	52	1
11	97	56	1
11	101	60	1
11	108	64	1
11	116	68	1
11	124	72	1
11	132	76	1
11	136	80	1
11	142	84	1
11	149	88	1
11	156	92	1
11	163	96	1
11	167	100	1
11	174	104	1
11	191	112	1
11	199	116	1
11	203	120	1
11	210	124	1
11	217	128	1
11	224	132	1
11	231	136	1
11	235	140	1
11	241	144	1
11	248	148	1
11	257	152	1
11	264	156	1
11	268	160	1
11	275	164	1
11	284	168	1
11	292	172	1
11	300	176	1
11	304	180	1
11	311	184	1
11	320	188	1
11	327	192	1
11	334	196	1
11	338	200	1
11	344	204	1
11	352	208	1
11	367	216	1
11	371	220	1
11	377	224	1
11	384	228	1
11	393	232	1
11	400	236	1
11	404	240	1
11	410	244	1
11	417	248	1
11	424	252	1
11	431	256	1
11	435	260	1
11	443	264	1
11	450	268	1
11	457	272	1
11	464	276	1
11	468	280	1
11	475	284	1
11	484	288	1
11	492	292	1
11	499	296	1
11	503	300	1
11	509	304	1
11	516	308	1
11	524	312	1
11	536	320	1
11	542	324	1
11	549	328	1
11	556	332	1
11	565	336	1
11	569	340	1
11	575	344	1
11	582	348	1
11	590	352	1
11	598	356	1
11	602	360	1
11	609	364	1
11	618	368	1
11	628	372	1
11	635	376	1
11	639	380	1
11	646	384	1
11	662	392	1
11	670	396	1
11	674	400	1
11	681	404	1
11	697	412	1
11	706	416	1
11	710	420	1
11	718	424	1
11	726	428	1
11	733	432	1
11	741	436	1
11	745	440	1
11	752	444	1
11	759	448	1
11	766	452	1
11	774	456	1
11	778	460	1
11	792	468	1
11	799	472	1
11	806	476	1
11	810	480	1
11	817	484	1
11	844	496	1
11	848	500	1
11	854	504	1
11	861	508	1
11	869	512	1
11	881	520	1
11	888	524	1
11	897	528	1
11	906	532	1
11	914	536	1
11	918	540	1
11	924	544	1
11	932	548	1
11	940	552	1
11	947	556	1
11	951	560	1
11	957	564	1
11	964	568	1
11	971	572	1
11	978	576	1
11	982	580	1
11	988	584	1
11	996	588	1
11	1011	596	1
11	1015	600	1
11	1021	604	1
11	1029	608	1
11	1039	612	1
11	1046	616	1
11	1050	620	1
11	1056	624	1
11	1063	628	1
11	1071	632	1
11	1079	636	1
11	1083	640	1
11	1090	644	1
11	1108	652	1
11	1116	656	1
11	1120	660	1
11	1127	664	1
11	1135	668	1
11	1143	672	1
11	1152	676	1
11	1156	680	1
11	1164	684	1
11	1173	688	1
11	1182	692	1
11	1194	700	1
11	1200	704	1
11	1207	708	1
11	1214	712	1
11	1221	716	1
11	1225	720	1
11	1231	724	1
11	1238	728	1
11	1246	732	1
11	1254	736	1
11	1258	740	1
11	1264	744	1
11	1271	748	1
11	1278	752	1
11	1286	756	1
11	1290	760	1
11	1297	764	1
11	1305	768	1
11	1313	772	1
11	1321	776	1
11	1325	780	1
11	1333	784	1
11	1342	788	1
11	1351	792	1
11	1359	796	1
11	1363	800	1
11	1370	804	1
11	1379	808	1
11	1388	812	1
11	1397	816	1
11	1401	820	1
11	1416	828	1
11	1438	840	1
11	1453	848	1
11	1463	852	1
11	1470	856	1
11	1474	860	1
11	1480	864	1
11	1488	868	1
11	1496	872	1
11	1504	876	1
11	1508	880	1
11	1516	884	1
11	1524	888	1
11	1531	892	1
11	1538	896	1
11	1542	900	1
11	1549	904	1
11	1567	912	1
11	1576	916	1
11	1580	920	1
11	1596	928	1
11	1603	932	1
11	1611	936	1
11	1615	940	1
11	1623	944	1
11	1632	948	1
11	1640	952	1
11	1647	956	1
11	1651	960	1
11	1658	964	1
11	1666	968	1
11	1673	972	1
11	1681	976	1
11	1685	980	1
11	1699	988	1
11	1706	992	1
11	1714	996	1
11	1718	1000	1
11	1743	1012	1
11	1750	1016	1
11	1754	1020	1
11	1761	1024	1
11	1770	1028	1
11	1780	1032	1
11	1787	1036	1
11	1791	1040	1
11	1797	1044	1
11	1804	1048	1
11	1811	1052	1
11	1818	1056	1
11	1822	1060	1
11	1829	1064	1
11	1837	1068	1
11	1845	1072	1
11	1855	1076	1
11	1859	1080	1
11	1865	1084	1
11	1872	1088	1
11	1880	1092	1
11	1888	1096	1
11	1892	1100	1
11	1898	1104	1
11	1906	1108	1
11	1915	1112	1
11	1928	1120	1
11	1936	1124	1
11	1944	1128	1
11	1951	1132	1
11	1958	1136	1
11	1962	1140	1
11	1969	1144	1
11	1978	1148	1
11	1986	1152	1
11	1994	1156	1
11	1998	1160	1
11	2005	1164	1
11	2012	1168	1
11	2019	1172	1
11	2029	1176	1
11	2033	1180	1
11	2039	1184	1
11	2046	1188	1
11	2054	1192	1
11	2067	1200	1
11	2083	1208	1
11	2090	1212	1
11	2097	1216	1
11	2101	1220	1
11	2108	1224	1
11	2124	1232	1
11	2132	1236	1
11	2136	1240	1
11	2144	1244	1
11	2152	1248	1
11	2160	1252	1
11	2167	1256	1
11	2171	1260	1
11	2178	1264	1
11	2194	1272	1
11	2202	1276	1
11	2206	1280	1
11	2212	1284	1
11	2219	1288	1
11	2226	1292	1
11	2234	1296	1
11	2238	1300	1
11	2245	1304	1
11	2253	1308	1
11	2270	1316	1
11	2274	1320	1
11	2280	1324	1
11	2288	1328	1
11	2296	1332	1
11	2303	1336	1
11	2307	1340	1
11	2313	1344	1
11	2321	1348	1
11	2329	1352	1
11	2337	1356	1
11	2341	1360	1
11	2349	1364	1
11	2358	1368	1
11	2366	1372	1
11	2375	1376	1
11	2379	1380	1
11	2385	1384	1
11	2392	1388	1
11	2399	1392	1
11	2406	1396	1
11	2410	1400	1
11	2417	1404	1
11	2427	1408	1
11	2434	1412	1
11	2441	1416	1
11	2445	1420	1
11	2451	1424	1
11	2459	1428	1
11	2469	1432	1
11	2476	1436	1
11	2480	1440	1
11	2486	1444	1
11	2493	1448	1
11	2501	1452	1
11	2514	1460	1
11	2522	1464	1
11	2538	1472	1
11	2546	1476	1
11	2550	1480	1
11	2556	1484	1
11	2564	1488	1
11	2573	1492	1
11	2581	1496	1
11	2585	1500	1
11	2591	1504	1
11	2599	1508	1
11	2608	1512	1
11	2616	1516	1
11	2620	1520	1
11	2628	1524	1
11	2635	1528	1
11	2642	1532	1
11	2649	1536	1
11	2653	1540	1
11	2659	1544	1
11	2668	1548	1
11	2676	1552	1
11	2689	1560	1
11	2704	1568	1
11	2720	1576	1
11	2724	1580	1
11	2738	1588	1
11	2745	1592	1
11	2752	1596	1
11	2756	1600	1
11	2763	1604	1
11	2780	1612	1
11	2788	1616	1
11	2792	1620	1
11	2799	1624	1
11	2806	1628	1
11	2813	1632	1
11	2820	1636	1
11	2824	1640	1
11	2830	1644	1
11	2837	1648	1
11	2844	1652	1
11	2851	1656	1
11	2855	1660	1
11	2862	1664	1
11	2871	1668	1
11	2879	1672	1
11	2886	1676	1
11	2890	1680	1
11	2896	1684	1
11	2904	1688	1
11	2913	1692	1
11	2921	1696	1
11	2925	1700	1
11	2931	1704	1
11	2938	1708	1
11	2945	1712	1
11	2953	1716	1
11	2957	1720	1
11	2980	1732	1
11	2987	1736	1
11	2991	1740	1
11	2998	1744	1
11	3023	1756	1
11	3027	1760	1
11	3044	1768	1
11	3053	1772	1
11	3062	1776	1
11	3066	1780	1
11	3073	1784	1
11	3080	1788	1
11	3088	1792	1
11	3097	1796	1
11	3101	1800	1
11	3109	1804	1
11	3126	1812	1
11	3133	1816	1
11	3137	1820	1
11	3144	1824	1
11	3154	1828	1
11	3162	1832	1
11	3170	1836	1
11	3174	1840	1
11	3180	1844	1
11	3187	1848	1
11	3194	1852	1
11	3203	1856	1
11	3207	1860	1
11	3213	1864	1
11	3220	1868	1
11	3227	1872	1
11	3235	1876	1
11	3239	1880	1
11	3247	1884	1
11	3256	1888	1
11	3264	1892	1
11	3272	1896	1
11	3276	1900	1
11	3283	1904	1
11	3291	1908	1
11	3312	1920	1
11	3318	1924	1
11	3325	1928	1
11	3332	1932	1
11	3340	1936	1
11	3344	1940	1
11	3352	1944	1
11	3368	1952	1
11	3376	1956	1
11	3380	1960	1
11	3386	1964	1
11	3394	1968	1
11	3410	1976	1
11	3414	1980	1
11	3431	1988	1
11	3449	1996	1
11	3453	2000	1
11	3467	2008	1
11	3474	2012	1
11	3482	2016	1
11	3486	2020	1
11	3494	2024	1
11	3503	2028	1
11	3513	2032	1
11	3521	2036	1
11	3525	2040	1
11	3532	2044	1
11	3539	2048	1
11	3547	2052	1
11	3555	2056	1
11	3559	2060	1
11	3565	2064	1
11	3574	2068	1
11	3581	2072	1
11	3588	2076	1
11	3592	2080	1
11	3598	2084	1
11	3605	2088	1
11	3612	2092	1
11	3619	2096	1
11	3623	2100	1
11	3629	2104	1
11	3636	2108	1
11	3645	2112	1
11	3652	2116	1
11	3656	2120	1
11	3662	2124	1
11	3669	2128	1
11	3676	2132	1
11	3685	2136	1
11	3689	2140	1
11	3696	2144	1
11	3704	2148	1
11	3711	2152	1
11	3718	2156	1
11	3722	2160	1
11	3728	2164	1
11	3735	2168	1
11	3743	2172	1
11	3752	2176	1
11	3756	2180	1
11	3763	2184	1
11	3772	2188	1
11	3779	2192	1
11	3786	2196	1
11	3790	2200	1
11	3796	2204	1
11	3803	2208	1
11	3810	2212	1
11	3818	2216	1
11	3822	2220	1
11	3829	2224	1
11	3836	2228	1
11	3844	2232	1
11	3852	2236	1
11	3856	2240	1
11	3862	2244	1
11	3869	2248	1
11	3877	2252	1
11	3885	2256	1
11	3889	2260	1
11	3895	2264	1
11	3902	2268	1
11	3910	2272	1
11	3920	2276	1
11	3924	2280	1
11	3930	2284	1
11	3937	2288	1
11	3945	2292	1
11	3953	2296	1
11	3957	2300	1
11	3964	2304	1
11	3990	2316	1
11	3994	2320	1
11	4001	2324	1
11	4010	2328	1
11	4025	2336	1
11	4029	2340	1
11	4037	2344	1
11	4044	2348	1
11	4051	2352	1
11	4058	2356	1
11	4062	2360	1
11	4069	2364	1
11	4077	2368	1
11	4084	2372	1
11	4091	2376	1
11	4095	2380	1
11	4101	2384	1
11	4108	2388	1
11	4117	2392	1
11	4124	2396	1
11	4128	2400	1
11	4134	2404	1
11	4141	2408	1
11	4148	2412	1
11	4155	2416	1
11	4159	2420	1
11	4165	2424	1
11	4172	2428	1
11	4179	2432	1
11	4186	2436	1
11	4190	2440	1
11	4197	2444	1
11	4212	2452	1
11	4219	2456	1
11	4223	2460	1
11	4229	2464	1
11	4237	2468	1
11	4245	2472	1
11	4254	2476	1
11	4258	2480	1
11	4265	2484	1
11	4274	2488	1
11	4282	2492	1
11	4290	2496	1
11	4294	2500	1
11	4308	2508	1
11	4315	2512	1
11	4323	2516	1
11	4327	2520	1
11	4341	2528	1
11	4349	2532	1
11	4358	2536	1
11	4362	2540	1
11	4378	2548	1
11	4386	2552	1
11	4398	2560	1
11	4405	2564	1
11	4414	2568	1
11	4423	2572	1
11	4432	2576	1
11	4436	2580	1
11	4445	2584	1
11	4452	2588	1
11	4459	2592	1
11	4467	2596	1
11	4471	2600	1
11	4478	2604	1
11	4485	2608	1
11	4492	2612	1
11	4500	2616	1
11	4504	2620	1
11	4518	2628	1
11	4525	2632	1
11	4533	2636	1
11	4537	2640	1
11	4545	2644	1
11	4561	2652	1
11	4570	2656	1
11	4574	2660	1
11	4582	2664	1
11	4591	2668	1
11	4599	2672	1
11	4607	2676	1
11	4611	2680	1
11	4627	2688	1
11	4637	2692	1
11	4644	2696	1
11	4648	2700	1
11	4654	2704	1
11	4661	2708	1
11	4669	2712	1
11	4678	2716	1
11	4682	2720	1
11	4689	2724	1
11	4696	2728	1
11	4703	2732	1
11	4710	2736	1
11	4714	2740	1
11	4721	2744	1
11	4730	2748	1
11	4739	2752	1
11	4753	2760	1
11	4759	2764	1
11	4766	2768	1
11	4773	2772	1
11	4780	2776	1
11	4784	2780	1
11	4791	2784	1
11	4799	2788	1
11	4809	2792	1
11	4816	2796	1
11	4820	2800	1
11	4826	2804	1
11	4833	2808	1
11	4840	2812	1
11	4848	2816	1
11	4852	2820	1
11	4861	2824	1
11	4868	2828	1
11	4875	2832	1
11	4882	2836	1
11	4886	2840	1
11	4892	2844	1
11	4899	2848	1
11	4906	2852	1
11	4913	2856	1
11	4917	2860	1
11	4923	2864	1
11	4930	2868	1
11	4937	2872	1
11	4946	2876	1
11	4950	2880	1
11	4956	2884	1
11	4963	2888	1
11	4971	2892	1
11	4984	2900	1
11	4991	2904	1
11	4999	2908	1
11	5007	2912	1
11	5014	2916	1
11	5018	2920	1
11	5025	2924	1
11	5051	2936	1
11	5055	2940	1
11	5061	2944	1
11	5068	2948	1
11	5075	2952	1
11	5083	2956	1
11	5087	2960	1
11	5095	2964	1
11	5103	2968	1
11	5112	2972	1
11	5119	2976	1
11	5123	2980	1
11	5130	2984	1
11	5138	2988	1
11	5145	2992	1
11	5152	2996	1
11	5156	3000	1
11	5163	3004	1
11	5172	3008	1
11	5181	3012	1
11	5193	3020	1
11	5199	3024	1
11	5208	3028	1
11	5215	3032	1
11	5222	3036	1
11	5226	3040	1
11	5233	3044	1
11	5241	3048	1
11	5248	3052	1
11	5255	3056	1
11	5259	3060	1
11	5265	3064	1
11	5272	3068	1
11	5279	3072	1
11	5286	3076	1
11	5290	3080	1
11	5296	3084	1
11	5303	3088	1
11	5310	3092	1
11	5318	3096	1
11	5322	3100	1
11	5339	3108	1
11	5347	3112	1
11	5354	3116	1
11	5358	3120	1
11	5365	3124	1
11	5374	3128	1
11	5384	3132	1
11	5392	3136	1
11	5396	3140	1
11	5410	3148	1
11	5417	3152	1
11	5424	3156	1
11	5428	3160	1
11	5435	3164	1
11	5443	3168	1
11	5450	3172	1
11	5457	3176	1
11	5461	3180	1
11	5468	3184	1
11	5476	3188	1
11	5484	3192	1
11	5492	3196	1
11	5496	3200	1
11	5503	3204	1
11	5512	3208	1
11	5520	3212	1
11	5528	3216	1
11	5532	3220	1
11	5547	3228	1
11	5556	3232	1
11	5568	3240	1
11	5575	3244	1
11	5601	3256	1
11	5605	3260	1
11	5611	3264	1
11	5618	3268	1
11	5625	3272	1
11	5632	3276	1
11	5636	3280	1
11	5643	3284	1
11	5651	3288	1
11	5658	3292	1
11	5666	3296	1
11	5670	3300	1
11	5678	3304	1
11	5688	3308	1
11	5695	3312	1
11	5703	3316	1
11	5707	3320	1
11	5721	3328	1
11	5728	3332	1
11	5735	3336	1
11	5739	3340	1
11	5746	3344	1
11	5755	3348	1
11	5763	3352	1
11	5770	3356	1
11	5774	3360	1
11	5781	3364	1
11	5798	3372	1
11	5806	3376	1
11	5810	3380	1
11	5817	3384	1
11	5824	3388	1
11	5831	3392	1
11	5840	3396	1
11	5844	3400	1
11	5850	3404	1
11	5857	3408	1
11	5864	3412	1
11	5871	3416	1
11	5875	3420	1
11	5881	3424	1
11	5888	3428	1
11	5895	3432	1
11	5902	3436	1
11	5906	3440	1
11	5913	3444	1
11	5923	3448	1
11	5930	3452	1
11	5938	3456	1
11	5942	3460	1
11	5957	3468	1
11	5973	3476	1
11	5977	3480	1
11	5984	3484	1
11	5993	3488	1
11	6001	3492	1
11	6013	3500	1
11	6019	3504	1
11	6026	3508	1
11	6034	3512	1
11	6047	3520	1
11	6061	3528	1
11	6069	3532	1
11	6084	3540	1
11	6090	3544	1
11	6097	3548	1
11	6104	3552	1
11	6111	3556	1
11	6115	3560	1
11	6121	3564	1
11	6129	3568	1
11	6144	3576	1
11	6148	3580	1
11	6154	3584	1
11	6161	3588	1
11	6168	3592	1
11	6176	3596	1
11	6180	3600	1
12	46	28	1
12	55	32	1
12	64	36	1
12	68	40	1
12	75	44	1
12	84	48	1
12	91	52	1
12	98	56	1
12	102	60	1
12	109	64	1
12	117	68	1
12	125	72	1
12	133	76	1
12	137	80	1
12	143	84	1
12	150	88	1
12	157	92	1
12	164	96	1
12	168	100	1
12	175	104	1
12	185	108	1
12	192	112	1
12	200	116	1
12	204	120	1
12	218	128	1
12	225	132	1
12	232	136	1
12	236	140	1
12	242	144	1
12	249	148	1
12	258	152	1
12	265	156	1
12	269	160	1
12	276	164	1
12	285	168	1
12	293	172	1
12	301	176	1
12	305	180	1
12	312	184	1
12	321	188	1
12	328	192	1
12	335	196	1
12	339	200	1
12	345	204	1
12	353	208	1
12	361	212	1
12	368	216	1
12	372	220	1
12	378	224	1
12	385	228	1
12	394	232	1
12	401	236	1
12	405	240	1
12	411	244	1
12	418	248	1
12	425	252	1
12	432	256	1
12	436	260	1
12	444	264	1
12	451	268	1
12	458	272	1
12	465	276	1
12	469	280	1
12	476	284	1
12	485	288	1
12	493	292	1
12	500	296	1
12	504	300	1
12	510	304	1
12	517	308	1
12	525	312	1
12	533	316	1
12	537	320	1
12	543	324	1
12	550	328	1
12	557	332	1
12	566	336	1
12	570	340	1
12	576	344	1
12	583	348	1
12	591	352	1
12	603	360	1
12	610	364	1
12	619	368	1
12	636	376	1
12	640	380	1
12	647	384	1
12	655	388	1
12	663	392	1
12	675	400	1
12	682	404	1
12	690	408	1
12	698	412	1
12	707	416	1
12	711	420	1
12	719	424	1
12	727	428	1
12	734	432	1
12	742	436	1
12	746	440	1
12	753	444	1
12	760	448	1
12	767	452	1
12	775	456	1
12	779	460	1
12	786	464	1
12	793	468	1
12	800	472	1
12	807	476	1
12	811	480	1
12	818	484	1
12	827	488	1
12	838	492	1
12	845	496	1
12	849	500	1
12	855	504	1
12	862	508	1
12	870	512	1
12	878	516	1
12	882	520	1
12	889	524	1
12	915	536	1
12	919	540	1
12	925	544	1
12	933	548	1
12	941	552	1
12	948	556	1
12	952	560	1
12	958	564	1
12	965	568	1
12	972	572	1
12	979	576	1
12	983	580	1
12	989	584	1
12	997	588	1
12	1005	592	1
12	1012	596	1
12	1016	600	1
12	1022	604	1
12	1030	608	1
12	1040	612	1
12	1047	616	1
12	1051	620	1
12	1057	624	1
12	1064	628	1
12	1072	632	1
12	1084	640	1
12	1091	644	1
12	1101	648	1
12	1109	652	1
12	1117	656	1
12	1121	660	1
12	1128	664	1
12	1144	672	1
12	1153	676	1
12	1157	680	1
12	1165	684	1
12	1174	688	1
12	1183	692	1
12	1191	696	1
12	1195	700	1
12	1201	704	1
12	1208	708	1
12	1215	712	1
12	1222	716	1
12	1226	720	1
12	1232	724	1
12	1239	728	1
12	1247	732	1
12	1259	740	1
12	1265	744	1
12	1272	748	1
12	1279	752	1
12	1287	756	1
12	1291	760	1
12	1298	764	1
12	1306	768	1
12	1314	772	1
12	1322	776	1
12	1326	780	1
12	1334	784	1
12	1352	792	1
12	1364	800	1
12	1371	804	1
12	1389	812	1
12	1402	820	1
12	1409	824	1
12	1417	828	1
12	1426	832	1
12	1435	836	1
12	1439	840	1
12	1446	844	1
12	1454	848	1
12	1471	856	1
12	1475	860	1
12	1481	864	1
12	1489	868	1
12	1497	872	1
12	1505	876	1
12	1509	880	1
12	1517	884	1
12	1532	892	1
12	1539	896	1
12	1543	900	1
12	1550	904	1
12	1559	908	1
12	1577	916	1
12	1581	920	1
12	1589	924	1
12	1597	928	1
12	1604	932	1
12	1612	936	1
12	1616	940	1
12	1624	944	1
12	1633	948	1
12	1641	952	1
12	1648	956	1
12	1652	960	1
12	1659	964	1
12	1667	968	1
12	1674	972	1
12	1682	976	1
12	1686	980	1
12	1693	984	1
12	1700	988	1
12	1707	992	1
12	1715	996	1
12	1719	1000	1
12	1727	1004	1
12	1735	1008	1
12	1744	1012	1
12	1751	1016	1
12	1755	1020	1
12	1762	1024	1
12	1771	1028	1
12	1788	1036	1
12	1792	1040	1
12	1798	1044	1
12	1805	1048	1
12	1812	1052	1
12	1819	1056	1
12	1823	1060	1
12	1830	1064	1
12	1838	1068	1
12	1846	1072	1
12	1856	1076	1
12	1860	1080	1
12	1866	1084	1
12	1873	1088	1
12	1881	1092	1
12	1893	1100	1
12	1899	1104	1
12	1907	1108	1
12	1925	1116	1
12	1929	1120	1
12	1937	1124	1
12	1952	1132	1
12	1959	1136	1
12	1963	1140	1
12	1970	1144	1
12	1979	1148	1
12	1987	1152	1
12	1995	1156	1
12	1999	1160	1
12	2006	1164	1
12	2013	1168	1
12	2020	1172	1
12	2030	1176	1
12	2034	1180	1
12	2040	1184	1
12	2047	1188	1
12	2055	1192	1
12	2064	1196	1
12	2068	1200	1
12	2076	1204	1
12	2091	1212	1
12	2098	1216	1
12	2102	1220	1
12	2109	1224	1
12	2117	1228	1
12	2125	1232	1
12	2133	1236	1
12	2137	1240	1
12	2145	1244	1
12	2153	1248	1
12	2168	1256	1
12	2172	1260	1
12	2179	1264	1
12	2187	1268	1
12	2195	1272	1
12	2203	1276	1
12	2207	1280	1
12	2213	1284	1
12	2220	1288	1
12	2227	1292	1
12	2235	1296	1
12	2239	1300	1
12	2246	1304	1
12	2254	1308	1
12	2263	1312	1
12	2275	1320	1
12	2281	1324	1
12	2289	1328	1
12	2297	1332	1
12	2304	1336	1
12	2308	1340	1
12	2314	1344	1
12	2322	1348	1
12	2338	1356	1
12	2342	1360	1
12	2350	1364	1
12	2359	1368	1
12	2367	1372	1
12	2376	1376	1
12	2380	1380	1
12	2386	1384	1
12	2393	1388	1
12	2400	1392	1
12	2407	1396	1
12	2411	1400	1
12	2418	1404	1
12	2428	1408	1
12	2435	1412	1
12	2442	1416	1
12	2446	1420	1
12	2452	1424	1
12	2460	1428	1
12	2470	1432	1
12	2477	1436	1
12	2481	1440	1
12	2487	1444	1
12	2494	1448	1
12	2502	1452	1
12	2511	1456	1
12	2515	1460	1
12	2523	1464	1
12	2531	1468	1
12	2539	1472	1
12	2551	1480	1
12	2557	1484	1
12	2565	1488	1
12	2574	1492	1
12	2582	1496	1
12	2586	1500	1
12	2592	1504	1
12	2600	1508	1
12	2609	1512	1
12	2621	1520	1
12	2629	1524	1
12	2636	1528	1
12	2643	1532	1
12	2650	1536	1
12	2654	1540	1
12	2660	1544	1
12	2669	1548	1
12	2677	1552	1
12	2686	1556	1
12	2690	1560	1
12	2697	1564	1
12	2705	1568	1
12	2713	1572	1
12	2721	1576	1
12	2725	1580	1
12	2732	1584	1
12	2739	1588	1
12	2746	1592	1
12	2753	1596	1
12	2757	1600	1
12	2764	1604	1
12	2774	1608	1
12	2781	1612	1
12	2789	1616	1
12	2793	1620	1
12	2800	1624	1
12	2807	1628	1
12	2814	1632	1
12	2821	1636	1
12	2825	1640	1
12	2831	1644	1
12	2838	1648	1
12	2845	1652	1
12	2852	1656	1
12	2856	1660	1
12	2863	1664	1
12	2872	1668	1
12	2880	1672	1
12	2887	1676	1
12	2891	1680	1
12	2897	1684	1
12	2905	1688	1
12	2922	1696	1
12	2926	1700	1
12	2932	1704	1
12	2939	1708	1
12	2946	1712	1
12	2954	1716	1
12	2958	1720	1
12	2966	1724	1
12	2974	1728	1
12	2981	1732	1
12	2988	1736	1
12	2992	1740	1
12	2999	1744	1
12	3008	1748	1
12	3016	1752	1
12	3024	1756	1
12	3028	1760	1
12	3036	1764	1
12	3054	1772	1
12	3063	1776	1
12	3067	1780	1
12	3081	1788	1
12	3089	1792	1
12	3102	1800	1
12	3119	1808	1
12	3134	1816	1
12	3138	1820	1
12	3145	1824	1
12	3163	1832	1
12	3175	1840	1
12	3181	1844	1
12	3188	1848	1
12	3195	1852	1
12	3204	1856	1
12	3208	1860	1
12	3214	1864	1
12	3221	1868	1
12	3228	1872	1
12	3236	1876	1
12	3240	1880	1
12	3273	1896	1
12	3277	1900	1
12	3284	1904	1
12	3292	1908	1
12	3301	1912	1
12	3309	1916	1
12	3313	1920	1
12	3319	1924	1
12	3326	1928	1
12	3333	1932	1
12	3341	1936	1
12	3345	1940	1
12	3361	1948	1
12	3369	1952	1
12	3377	1956	1
12	3381	1960	1
12	3387	1964	1
12	3395	1968	1
12	3403	1972	1
12	3411	1976	1
12	3415	1980	1
12	3423	1984	1
12	3442	1992	1
12	3450	1996	1
12	3454	2000	1
12	3461	2004	1
12	3468	2008	1
12	3475	2012	1
12	3483	2016	1
12	3487	2020	1
12	3504	2028	1
12	3522	2036	1
12	3526	2040	1
12	3540	2048	1
12	3548	2052	1
12	3556	2056	1
12	3560	2060	1
12	3566	2064	1
12	3575	2068	1
12	3582	2072	1
12	3589	2076	1
12	3593	2080	1
12	3599	2084	1
12	3606	2088	1
12	3613	2092	1
12	3620	2096	1
12	3624	2100	1
12	3630	2104	1
12	3637	2108	1
12	3646	2112	1
12	3653	2116	1
12	3657	2120	1
12	3663	2124	1
12	3670	2128	1
12	3677	2132	1
12	3686	2136	1
12	3690	2140	1
12	3697	2144	1
12	3712	2152	1
12	3719	2156	1
12	3723	2160	1
12	3729	2164	1
12	3736	2168	1
12	3744	2172	1
12	3757	2180	1
12	3773	2188	1
12	3780	2192	1
12	3787	2196	1
12	3791	2200	1
12	3797	2204	1
12	3804	2208	1
12	3811	2212	1
12	3819	2216	1
12	3823	2220	1
12	3837	2228	1
12	3845	2232	1
12	3853	2236	1
12	3857	2240	1
12	3863	2244	1
12	3870	2248	1
12	3878	2252	1
12	3890	2260	1
12	3896	2264	1
12	3903	2268	1
12	3911	2272	1
12	3925	2280	1
12	3931	2284	1
12	3938	2288	1
12	3946	2292	1
12	3958	2300	1
12	3965	2304	1
12	3974	2308	1
12	3983	2312	1
12	3995	2320	1
12	4002	2324	1
12	4011	2328	1
12	4019	2332	1
12	4026	2336	1
12	4030	2340	1
12	4038	2344	1
12	4045	2348	1
12	4052	2352	1
12	4059	2356	1
12	4063	2360	1
12	4070	2364	1
12	4078	2368	1
12	4085	2372	1
12	4092	2376	1
12	4096	2380	1
12	4102	2384	1
12	4109	2388	1
12	4118	2392	1
12	4125	2396	1
12	4129	2400	1
12	4135	2404	1
12	4142	2408	1
12	4149	2412	1
12	4156	2416	1
12	4160	2420	1
12	4166	2424	1
12	4173	2428	1
12	4180	2432	1
12	4187	2436	1
12	4191	2440	1
12	4198	2444	1
12	4206	2448	1
12	4213	2452	1
12	4220	2456	1
12	4224	2460	1
12	4230	2464	1
12	4238	2468	1
12	4246	2472	1
12	4255	2476	1
12	4259	2480	1
12	4266	2484	1
12	4291	2496	1
12	4295	2500	1
12	4302	2504	1
12	4309	2508	1
12	4316	2512	1
12	4324	2516	1
12	4328	2520	1
12	4335	2524	1
12	4342	2528	1
12	4350	2532	1
12	4363	2540	1
12	4371	2544	1
12	4379	2548	1
12	4387	2552	1
12	4395	2556	1
12	4399	2560	1
12	4406	2564	1
12	4415	2568	1
12	4437	2580	1
12	4453	2588	1
12	4460	2592	1
12	4468	2596	1
12	4472	2600	1
12	4486	2608	1
12	4493	2612	1
12	4501	2616	1
12	4505	2620	1
12	4512	2624	1
12	4519	2628	1
12	4526	2632	1
12	4534	2636	1
12	4538	2640	1
12	4554	2648	1
12	4562	2652	1
12	4571	2656	1
12	4575	2660	1
12	4583	2664	1
12	4592	2668	1
12	4608	2676	1
12	4612	2680	1
12	4620	2684	1
12	4628	2688	1
12	4638	2692	1
12	4645	2696	1
12	4649	2700	1
12	4655	2704	1
12	4662	2708	1
12	4670	2712	1
12	4683	2720	1
12	4697	2728	1
12	4704	2732	1
12	4711	2736	1
12	4715	2740	1
12	4722	2744	1
12	4731	2748	1
12	4740	2752	1
12	4750	2756	1
12	4754	2760	1
12	4760	2764	1
12	4767	2768	1
12	4774	2772	1
12	4781	2776	1
12	4785	2780	1
12	4792	2784	1
12	4800	2788	1
12	4810	2792	1
12	4817	2796	1
12	4821	2800	1
12	4827	2804	1
12	4834	2808	1
12	4841	2812	1
12	4849	2816	1
12	4853	2820	1
12	4862	2824	1
12	4869	2828	1
12	4876	2832	1
12	4883	2836	1
12	4887	2840	1
12	4893	2844	1
12	4900	2848	1
12	4907	2852	1
12	4914	2856	1
12	4918	2860	1
12	4924	2864	1
12	4931	2868	1
12	4938	2872	1
12	4947	2876	1
12	4951	2880	1
12	4957	2884	1
12	4964	2888	1
12	4972	2892	1
12	4981	2896	1
12	4985	2900	1
12	5000	2908	1
12	5015	2916	1
12	5019	2920	1
12	5026	2924	1
12	5035	2928	1
12	5043	2932	1
12	5052	2936	1
12	5056	2940	1
12	5062	2944	1
12	5069	2948	1
12	5076	2952	1
12	5084	2956	1
12	5088	2960	1
12	5096	2964	1
12	5104	2968	1
12	5113	2972	1
12	5120	2976	1
12	5124	2980	1
12	5131	2984	1
12	5139	2988	1
12	5146	2992	1
12	5153	2996	1
12	5157	3000	1
12	5164	3004	1
12	5173	3008	1
12	5182	3012	1
12	5190	3016	1
12	5194	3020	1
12	5200	3024	1
12	5209	3028	1
12	5216	3032	1
12	5223	3036	1
12	5227	3040	1
12	5234	3044	1
12	5242	3048	1
12	5249	3052	1
12	5256	3056	1
12	5260	3060	1
12	5266	3064	1
12	5273	3068	1
12	5280	3072	1
12	5287	3076	1
12	5291	3080	1
12	5297	3084	1
12	5304	3088	1
12	5311	3092	1
12	5319	3096	1
12	5323	3100	1
12	5331	3104	1
12	5348	3112	1
12	5355	3116	1
12	5359	3120	1
12	5366	3124	1
12	5385	3132	1
12	5393	3136	1
12	5397	3140	1
12	5404	3144	1
12	5411	3148	1
12	5418	3152	1
12	5425	3156	1
12	5429	3160	1
12	5436	3164	1
12	5444	3168	1
12	5451	3172	1
12	5458	3176	1
12	5462	3180	1
12	5469	3184	1
12	5485	3192	1
12	5497	3200	1
12	5504	3204	1
12	5529	3216	1
12	5533	3220	1
12	5540	3224	1
12	5548	3228	1
12	5565	3236	1
12	5569	3240	1
12	5576	3244	1
12	5585	3248	1
12	5593	3252	1
12	5602	3256	1
12	5606	3260	1
12	5612	3264	1
12	5619	3268	1
12	5626	3272	1
12	5633	3276	1
12	5637	3280	1
12	5644	3284	1
12	5659	3292	1
12	5667	3296	1
12	5671	3300	1
12	5696	3312	1
12	5704	3316	1
12	5708	3320	1
12	5715	3324	1
12	5722	3328	1
12	5729	3332	1
12	5736	3336	1
12	5740	3340	1
12	5747	3344	1
12	5764	3352	1
12	5771	3356	1
12	5775	3360	1
12	5782	3364	1
12	5791	3368	1
12	5799	3372	1
12	5807	3376	1
12	5811	3380	1
12	5825	3388	1
12	5832	3392	1
12	5841	3396	1
12	5845	3400	1
12	5851	3404	1
12	5858	3408	1
12	5865	3412	1
12	5872	3416	1
12	5876	3420	1
12	5882	3424	1
12	5889	3428	1
12	5896	3432	1
12	5903	3436	1
12	5907	3440	1
12	5914	3444	1
12	5924	3448	1
12	5931	3452	1
12	5939	3456	1
12	5943	3460	1
12	5950	3464	1
12	5958	3468	1
12	5966	3472	1
12	5974	3476	1
12	5978	3480	1
12	5985	3484	1
12	5994	3488	1
12	6002	3492	1
12	6010	3496	1
12	6014	3500	1
12	6020	3504	1
12	6027	3508	1
12	6035	3512	1
12	6044	3516	1
12	6048	3520	1
12	6055	3524	1
12	6062	3528	1
12	6070	3532	1
12	6081	3536	1
12	6085	3540	1
12	6091	3544	1
12	6098	3548	1
12	6105	3552	1
12	6112	3556	1
12	6116	3560	1
12	6122	3564	1
12	6130	3568	1
12	6138	3572	1
12	6145	3576	1
12	6149	3580	1
12	6155	3584	1
12	6162	3588	1
12	6169	3592	1
12	6177	3596	1
12	6181	3600	1
13	58	35	1
13	112	65	1
13	128	75	1
13	279	165	1
13	288	170	1
13	307	180	1
13	479	285	1
13	488	290	1
13	613	365	1
13	701	415	1
13	713	420	1
13	722	425	1
13	748	440	1
13	910	535	1
13	936	550	1
13	1033	610	1
13	1112	655	1
13	1147	675	1
13	1159	680	1
13	1168	685	1
13	1177	690	1
13	1293	760	1
13	1309	770	1
13	1328	780	1
13	1346	790	1
13	1383	810	1
13	1492	870	1
13	1511	880	1
13	1571	915	1
13	1592	925	1
13	1618	940	1
13	1627	945	1
13	1636	950	1
13	1662	965	1
13	1765	1025	1
13	1833	1065	1
13	1849	1075	1
13	1931	1120	1
13	1973	1145	1
13	1982	1150	1
13	2001	1160	1
13	2128	1235	1
13	2198	1275	1
13	2241	1300	1
13	2292	1330	1
13	2344	1360	1
13	2353	1365	1
13	2362	1370	1
13	2421	1405	1
13	2463	1430	1
13	2517	1460	1
13	2568	1490	1
13	2577	1495	1
13	2603	1510	1
13	2795	1620	1
13	2866	1665	1
13	2875	1670	1
13	2917	1695	1
13	3048	1770	1
13	3057	1775	1
13	3279	1900	1
13	3372	1955	1
13	3498	2025	1
13	3551	2055	1
13	3848	2235	1
13	4005	2325	1
13	4073	2365	1
13	4241	2470	1
13	4374	2545	1
13	4409	2565	1
13	4565	2655	1
13	4577	2660	1
13	4586	2665	1
13	4623	2685	1
13	4725	2745	1
13	4734	2750	1
13	4795	2785	1
13	4855	2820	1
13	5090	2960	1
13	5099	2965	1
13	5134	2985	1
13	5167	3005	1
13	5176	3010	1
13	5237	3045	1
13	5343	3110	1
13	5378	3130	1
13	5439	3165	1
13	5759	3350	1
13	5794	3370	1
13	5917	3445	1
13	5980	3480	1
14	58	35	31
14	112	65	57
14	128	75	63
14	279	165	149
14	288	170	150
14	307	180	144
14	479	285	217
14	488	290	214
14	613	365	197
14	701	415	243
14	713	420	236
14	722	425	137
14	748	440	148
14	910	535	167
14	936	550	134
14	1033	610	186
14	1112	655	227
14	1147	675	231
14	1159	680	144
14	1168	685	133
14	1177	690	78
14	1293	760	104
14	1309	770	94
14	1328	780	96
14	1346	790	102
14	1383	810	118
14	1492	870	106
14	1511	880	108
14	1571	915	131
14	1592	925	133
14	1618	940	128
14	1627	945	73
14	1636	950	66
14	1662	965	49
14	1765	1025	97
14	1833	1065	121
14	1849	1075	127
14	1931	1120	168
14	1973	1145	177
14	1982	1150	122
14	2001	1160	92
14	2128	1235	159
14	2198	1275	151
14	2241	1300	152
14	2292	1330	178
14	2344	1360	196
14	2353	1365	129
14	2362	1370	94
14	2421	1405	101
14	2463	1430	98
14	2517	1460	96
14	2568	1490	122
14	2577	1495	123
14	2603	1510	102
14	2795	1620	188
14	2866	1665	201
14	2875	1670	178
14	2917	1695	199
14	3048	1770	258
14	3057	1775	151
14	3279	1900	232
14	3372	1955	283
14	3498	2025	329
14	3551	2055	283
14	3848	2235	459
14	4005	2325	421
14	4073	2365	409
14	4241	2470	442
14	4374	2545	489
14	4409	2565	329
14	4565	2655	327
14	4577	2660	292
14	4586	2665	193
14	4623	2685	137
14	4725	2745	177
14	4734	2750	94
14	4795	2785	121
14	4855	2820	152
14	5090	2960	272
14	5099	2965	217
14	5134	2985	233
14	5167	3005	217
14	5176	3010	186
14	5237	3045	81
14	5343	3110	142
14	5378	3130	142
14	5439	3165	157
14	5759	3350	338
14	5794	3370	322
14	5917	3445	333
14	5980	3480	348
15	58	35	1
15	112	65	1
15	128	75	1
15	279	165	1
15	288	170	1
15	307	180	1
15	479	285	1
15	488	290	1
15	613	365	1
15	701	415	1
15	713	420	1
15	722	425	1
15	748	440	1
15	910	535	1
15	936	550	1
15	1033	610	1
15	1112	655	1
15	1147	675	1
15	1159	680	1
15	1168	685	1
15	1177	690	1
15	1293	760	1
15	1309	770	1
15	1328	780	1
15	1346	790	1
15	1383	810	1
15	1492	870	1
15	1511	880	1
15	1571	915	1
15	1592	925	1
15	1618	940	1
15	1627	945	1
15	1636	950	1
15	1662	965	1
15	1765	1025	1
15	1833	1065	1
15	1849	1075	1
15	1931	1120	1
15	1973	1145	1
15	1982	1150	1
15	2001	1160	1
15	2128	1235	1
15	2198	1275	1
15	2241	1300	1
15	2292	1330	1
15	2344	1360	1
15	2353	1365	1
15	2362	1370	1
15	2421	1405	1
15	2463	1430	1
15	2517	1460	1
15	2568	1490	1
15	2577	1495	1
15	2603	1510	1
15	2795	1620	1
15	2866	1665	1
15	2875	1670	1
15	2917	1695	1
15	3048	1770	1
15	3057	1775	1
15	3279	1900	1
15	3372	1955	1
15	3498	2025	1
15	3551	2055	1
15	3848	2235	1
15	4005	2325	1
15	4073	2365	1
15	4241	2470	1
15	4374	2545	1
15	4409	2565	1
15	4565	2655	1
15	4577	2660	1
15	4586	2665	1
15	4623	2685	1
15	4725	2745	1
15	4734	2750	1
15	4795	2785	1
15	4855	2820	1
15	5090	2960	1
15	5099	2965	1
15	5134	2985	1
15	5167	3005	1
15	5176	3010	1
15	5237	3045	1
15	5343	3110	1
15	5378	3130	1
15	5439	3165	1
15	5759	3350	1
15	5794	3370	1
15	5917	3445	1
15	5980	3480	1

