version 2
run FourthVerification-2-20201214-15:14:40-220618
attr configname FourthVerification
attr datetime 20201214-15:14:40
attr experiment FourthVerification
attr inifile omnetpp.ini
attr iterationvars "$0=2, $1=0.6"
attr iterationvarsf 2,0.6-
attr measurement "$0=2, $1=0.6"
attr network slottedNetwork
attr processid 220618
attr repetition 0
attr replication #0
attr resultdir results
attr runnumber 2
attr seedset 2
param **.numTransmitters 2
param **.numChannels 1
param **.bufferSize 5
param **.sendProbability 0.6
param **.expMean 4s
param **.timeSlotSize 5s
param **.thresh 20s
param **.deterministicInterarrivalTime true
param **.numTransmitters 1
param **.numChannels 1
param **.bufferSize 5
param **.sendProbability 1
param **.expMean 5s
param **.timeSlotSize 5s
param **.thresh 20s
param **.deterministicInterarrivalTime false

vector 0 slottedNetwork.transmitters[0] numPacketCreated:vector ETV
attr source numPacketCreatedSignal
vector 1 slottedNetwork.transmitters[1] numPacketCreated:vector ETV
attr source numPacketCreatedSignal
vector 2 slottedNetwork.ch throughput:vector ETV
attr source throughputSignal
vector 3 slottedNetwork.transmitters[0] numPacketDiscarded:vector ETV
attr source numPacketDiscardedSignal
vector 4 slottedNetwork.transmitters[1] numPacketDiscarded:vector ETV
attr source numPacketDiscardedSignal
vector 5 slottedNetwork.receivers[1] numPacketReceived:vector ETV
attr source numPacketReceivedSignal
vector 6 slottedNetwork.receivers[1] responseTime:vector ETV
attr source responseTimeSignal
vector 7 slottedNetwork.receivers[1] threshold:vector ETV
attr source thresholdSignal
vector 8 slottedNetwork.receivers[0] numPacketReceived:vector ETV
attr source numPacketReceivedSignal
vector 9 slottedNetwork.receivers[0] responseTime:vector ETV
attr source responseTimeSignal
vector 10 slottedNetwork.receivers[0] threshold:vector ETV
attr source thresholdSignal
0	1	4	1
0	8	8	1
0	13	12	1
0	18	16	1
0	21	20	1
0	25	24	1
0	30	28	1
0	36	32	1
0	43	36	1
0	46	40	1
0	53	44	1
0	58	48	1
0	63	52	1
0	68	56	1
0	71	60	1
0	75	64	1
0	81	68	1
0	88	72	1
0	95	76	1
0	98	80	1
0	103	84	1
0	109	88	1
0	117	92	1
0	122	96	1
0	125	100	1
0	129	104	1
0	134	108	1
0	139	112	1
0	145	116	1
0	148	120	1
0	154	124	1
0	161	128	1
0	168	132	1
0	175	136	1
0	178	140	1
0	183	144	1
0	189	148	1
0	197	152	1
0	202	156	1
0	205	160	1
0	209	164	1
0	215	168	1
0	221	172	1
0	227	176	1
0	230	180	1
0	237	184	1
0	242	188	1
0	247	192	1
0	253	196	1
0	256	200	1
0	261	204	1
0	267	208	1
0	273	212	1
0	278	216	1
0	281	220	1
0	286	224	1
0	293	228	1
0	300	232	1
0	308	236	1
0	311	240	1
0	315	244	1
0	320	248	1
0	325	252	1
0	330	256	1
0	333	260	1
0	337	264	1
0	342	268	1
0	348	272	1
0	355	276	1
0	358	280	1
0	364	284	1
0	371	288	1
0	379	292	1
0	384	296	1
0	387	300	1
0	391	304	1
0	396	308	1
0	401	312	1
0	406	316	1
0	409	320	1
0	415	324	1
0	420	328	1
0	425	332	1
0	430	336	1
0	433	340	1
0	437	344	1
0	442	348	1
0	448	352	1
0	454	356	1
0	457	360	1
0	462	364	1
0	469	368	1
0	476	372	1
0	484	376	1
0	487	380	1
0	491	384	1
0	496	388	1
0	501	392	1
0	507	396	1
0	510	400	1
0	517	404	1
0	522	408	1
0	527	412	1
0	532	416	1
0	535	420	1
0	540	424	1
0	546	428	1
0	552	432	1
0	558	436	1
0	561	440	1
0	565	444	1
0	571	448	1
0	579	452	1
0	584	456	1
0	587	460	1
0	591	464	1
0	596	468	1
0	602	472	1
0	609	476	1
0	612	480	1
0	617	484	1
0	622	488	1
0	628	492	1
0	636	496	1
0	639	500	1
0	643	504	1
0	648	508	1
0	653	512	1
0	658	516	1
0	661	520	1
0	665	524	1
0	671	528	1
0	678	532	1
0	685	536	1
0	688	540	1
0	694	544	1
0	702	548	1
0	707	552	1
0	712	556	1
0	715	560	1
0	720	564	1
0	727	568	1
0	733	572	1
0	738	576	1
0	741	580	1
0	746	584	1
0	752	588	1
0	758	592	1
0	765	596	1
0	768	600	1
0	774	604	1
0	781	608	1
0	788	612	1
0	794	616	1
0	797	620	1
0	802	624	1
0	808	628	1
0	815	632	1
0	820	636	1
0	823	640	1
0	827	644	1
0	832	648	1
0	837	652	1
0	842	656	1
0	845	660	1
0	850	664	1
0	857	668	1
0	864	672	1
0	871	676	1
0	874	680	1
0	879	684	1
0	885	688	1
0	892	692	1
0	899	696	1
0	902	700	1
0	908	704	1
0	915	708	1
0	922	712	1
0	929	716	1
0	932	720	1
0	937	724	1
0	942	728	1
0	947	732	1
0	953	736	1
0	956	740	1
0	961	744	1
0	967	748	1
0	974	752	1
0	981	756	1
0	984	760	1
0	990	764	1
0	997	768	1
0	1004	772	1
0	1011	776	1
0	1014	780	1
0	1019	784	1
0	1025	788	1
0	1032	792	1
0	1039	796	1
0	1042	800	1
0	1047	804	1
0	1053	808	1
0	1060	812	1
0	1067	816	1
0	1070	820	1
0	1076	824	1
0	1083	828	1
0	1091	832	1
0	1096	836	1
0	1099	840	1
0	1103	844	1
0	1108	848	1
0	1113	852	1
0	1118	856	1
0	1121	860	1
0	1125	864	1
0	1131	868	1
0	1139	872	1
0	1144	876	1
0	1147	880	1
0	1151	884	1
0	1156	888	1
0	1162	892	1
0	1168	896	1
0	1171	900	1
0	1176	904	1
0	1182	908	1
0	1188	912	1
0	1196	916	1
0	1199	920	1
0	1203	924	1
0	1208	928	1
0	1213	932	1
0	1219	936	1
0	1222	940	1
0	1228	944	1
0	1234	948	1
0	1240	952	1
0	1246	956	1
0	1249	960	1
0	1254	964	1
0	1261	968	1
0	1267	972	1
0	1272	976	1
0	1275	980	1
0	1279	984	1
0	1284	988	1
0	1291	992	1
0	1296	996	1
0	1299	1000	1
0	1303	1004	1
0	1308	1008	1
0	1313	1012	1
0	1318	1016	1
0	1321	1020	1
0	1326	1024	1
0	1333	1028	1
0	1340	1032	1
0	1348	1036	1
0	1351	1040	1
0	1355	1044	1
0	1360	1048	1
0	1365	1052	1
0	1370	1056	1
0	1373	1060	1
0	1377	1064	1
0	1383	1068	1
0	1391	1072	1
0	1396	1076	1
0	1399	1080	1
0	1403	1084	1
0	1408	1088	1
0	1413	1092	1
0	1418	1096	1
0	1421	1100	1
0	1426	1104	1
0	1434	1108	1
0	1439	1112	1
0	1444	1116	1
0	1447	1120	1
0	1451	1124	1
0	1456	1128	1
0	1461	1132	1
0	1467	1136	1
0	1470	1140	1
0	1476	1144	1
0	1482	1148	1
0	1488	1152	1
0	1494	1156	1
0	1497	1160	1
0	1502	1164	1
0	1509	1168	1
0	1516	1172	1
0	1522	1176	1
0	1525	1180	1
0	1530	1184	1
0	1537	1188	1
0	1543	1192	1
0	1549	1196	1
0	1552	1200	1
0	1558	1204	1
0	1566	1208	1
0	1571	1212	1
0	1576	1216	1
0	1579	1220	1
0	1583	1224	1
0	1588	1228	1
0	1594	1232	1
0	1601	1236	1
0	1604	1240	1
0	1610	1244	1
0	1617	1248	1
0	1623	1252	1
0	1628	1256	1
0	1631	1260	1
0	1636	1264	1
0	1643	1268	1
0	1650	1272	1
0	1657	1276	1
0	1660	1280	1
0	1665	1284	1
0	1670	1288	1
0	1676	1292	1
0	1683	1296	1
0	1686	1300	1
0	1691	1304	1
0	1697	1308	1
0	1704	1312	1
0	1710	1316	1
0	1713	1320	1
0	1718	1324	1
0	1724	1328	1
0	1731	1332	1
0	1736	1336	1
0	1739	1340	1
0	1743	1344	1
0	1749	1348	1
0	1756	1352	1
0	1762	1356	1
0	1765	1360	1
0	1770	1364	1
0	1777	1368	1
0	1783	1372	1
0	1789	1376	1
0	1792	1380	1
0	1797	1384	1
0	1802	1388	1
0	1808	1392	1
0	1815	1396	1
0	1818	1400	1
0	1823	1404	1
0	1828	1408	1
0	1833	1412	1
0	1839	1416	1
0	1842	1420	1
0	1848	1424	1
0	1854	1428	1
0	1860	1432	1
0	1867	1436	1
0	1870	1440	1
0	1876	1444	1
0	1882	1448	1
0	1887	1452	1
0	1893	1456	1
0	1896	1460	1
0	1902	1464	1
0	1910	1468	1
0	1915	1472	1
0	1920	1476	1
0	1923	1480	1
0	1927	1484	1
0	1933	1488	1
0	1940	1492	1
0	1947	1496	1
0	1950	1500	1
0	1956	1504	1
0	1963	1508	1
0	1970	1512	1
0	1977	1516	1
0	1980	1520	1
0	1985	1524	1
0	1990	1528	1
0	1996	1532	1
0	2002	1536	1
0	2005	1540	1
0	2010	1544	1
0	2016	1548	1
0	2022	1552	1
0	2029	1556	1
0	2032	1560	1
0	2038	1564	1
0	2045	1568	1
0	2051	1572	1
0	2056	1576	1
0	2059	1580	1
0	2064	1584	1
0	2071	1588	1
0	2078	1592	1
0	2085	1596	1
0	2088	1600	1
0	2093	1604	1
0	2099	1608	1
0	2105	1612	1
0	2111	1616	1
0	2114	1620	1
0	2119	1624	1
0	2124	1628	1
0	2130	1632	1
0	2137	1636	1
0	2140	1640	1
0	2146	1644	1
0	2152	1648	1
0	2158	1652	1
0	2164	1656	1
0	2167	1660	1
0	2172	1664	1
0	2179	1668	1
0	2186	1672	1
0	2192	1676	1
0	2195	1680	1
0	2199	1684	1
0	2204	1688	1
0	2210	1692	1
0	2217	1696	1
0	2220	1700	1
0	2226	1704	1
0	2233	1708	1
0	2240	1712	1
0	2247	1716	1
0	2250	1720	1
0	2256	1724	1
0	2262	1728	1
0	2268	1732	1
0	2275	1736	1
0	2278	1740	1
0	2284	1744	1
0	2291	1748	1
0	2298	1752	1
0	2305	1756	1
0	2308	1760	1
0	2313	1764	1
0	2318	1768	1
0	2323	1772	1
0	2328	1776	1
0	2331	1780	1
0	2335	1784	1
0	2340	1788	1
0	2345	1792	1
0	2351	1796	1
0	2354	1800	1
0	2360	1804	1
0	2367	1808	1
0	2374	1812	1
0	2380	1816	1
0	2383	1820	1
0	2388	1824	1
0	2395	1828	1
0	2402	1832	1
0	2409	1836	1
0	2412	1840	1
0	2417	1844	1
0	2422	1848	1
0	2427	1852	1
0	2433	1856	1
0	2436	1860	1
0	2441	1864	1
0	2447	1868	1
0	2454	1872	1
0	2461	1876	1
0	2464	1880	1
0	2469	1884	1
0	2475	1888	1
0	2481	1892	1
0	2486	1896	1
0	2489	1900	1
0	2494	1904	1
0	2501	1908	1
0	2508	1912	1
0	2514	1916	1
0	2517	1920	1
0	2522	1924	1
0	2529	1928	1
0	2536	1932	1
0	2542	1936	1
0	2545	1940	1
0	2549	1944	1
0	2554	1948	1
0	2560	1952	1
0	2566	1956	1
0	2569	1960	1
0	2574	1964	1
0	2580	1968	1
0	2585	1972	1
0	2590	1976	1
0	2593	1980	1
0	2598	1984	1
0	2605	1988	1
0	2612	1992	1
0	2618	1996	1
0	2621	2000	1
0	2626	2004	1
0	2633	2008	1
0	2640	2012	1
0	2647	2016	1
0	2650	2020	1
0	2656	2024	1
0	2663	2028	1
0	2669	2032	1
0	2675	2036	1
0	2678	2040	1
0	2685	2044	1
0	2690	2048	1
0	2695	2052	1
0	2700	2056	1
0	2703	2060	1
0	2707	2064	1
0	2712	2068	1
0	2718	2072	1
0	2725	2076	1
0	2728	2080	1
0	2734	2084	1
0	2741	2088	1
0	2748	2092	1
0	2754	2096	1
0	2757	2100	1
0	2761	2104	1
0	2766	2108	1
0	2771	2112	1
0	2777	2116	1
0	2780	2120	1
0	2786	2124	1
0	2793	2128	1
0	2800	2132	1
0	2807	2136	1
0	2810	2140	1
0	2816	2144	1
0	2823	2148	1
0	2830	2152	1
0	2836	2156	1
0	2839	2160	1
0	2843	2164	1
0	2849	2168	1
0	2856	2172	1
0	2862	2176	1
0	2865	2180	1
0	2870	2184	1
0	2877	2188	1
0	2883	2192	1
0	2888	2196	1
0	2891	2200	1
0	2895	2204	1
0	2901	2208	1
0	2908	2212	1
0	2914	2216	1
0	2917	2220	1
0	2922	2224	1
0	2929	2228	1
0	2935	2232	1
0	2941	2236	1
0	2944	2240	1
0	2949	2244	1
0	2954	2248	1
0	2960	2252	1
0	2967	2256	1
0	2970	2260	1
0	2975	2264	1
0	2980	2268	1
0	2985	2272	1
0	2991	2276	1
0	2994	2280	1
0	3000	2284	1
0	3006	2288	1
0	3012	2292	1
0	3019	2296	1
0	3022	2300	1
0	3028	2304	1
0	3034	2308	1
0	3039	2312	1
0	3045	2316	1
0	3048	2320	1
0	3053	2324	1
0	3058	2328	1
0	3063	2332	1
0	3069	2336	1
0	3072	2340	1
0	3078	2344	1
0	3085	2348	1
0	3092	2352	1
0	3099	2356	1
0	3102	2360	1
0	3107	2364	1
0	3113	2368	1
0	3119	2372	1
0	3125	2376	1
0	3128	2380	1
0	3134	2384	1
0	3141	2388	1
0	3147	2392	1
0	3153	2396	1
0	3156	2400	1
0	3161	2404	1
0	3167	2408	1
0	3174	2412	1
0	3180	2416	1
0	3183	2420	1
0	3187	2424	1
0	3192	2428	1
0	3198	2432	1
0	3205	2436	1
0	3208	2440	1
0	3213	2444	1
0	3219	2448	1
0	3225	2452	1
0	3231	2456	1
0	3234	2460	1
0	3240	2464	1
0	3246	2468	1
0	3252	2472	1
0	3259	2476	1
0	3262	2480	1
0	3268	2484	1
0	3275	2488	1
0	3281	2492	1
0	3286	2496	1
0	3289	2500	1
0	3293	2504	1
0	3298	2508	1
0	3304	2512	1
0	3311	2516	1
0	3314	2520	1
0	3320	2524	1
0	3327	2528	1
0	3334	2532	1
0	3341	2536	1
0	3344	2540	1
0	3350	2544	1
0	3357	2548	1
0	3364	2552	1
0	3371	2556	1
0	3374	2560	1
0	3380	2564	1
0	3387	2568	1
0	3394	2572	1
0	3401	2576	1
0	3404	2580	1
0	3409	2584	1
0	3415	2588	1
0	3422	2592	1
0	3428	2596	1
0	3431	2600	1
0	3435	2604	1
0	3441	2608	1
0	3448	2612	1
0	3454	2616	1
0	3457	2620	1
0	3462	2624	1
0	3469	2628	1
0	3476	2632	1
0	3483	2636	1
0	3486	2640	1
0	3492	2644	1
0	3498	2648	1
0	3504	2652	1
0	3510	2656	1
0	3513	2660	1
0	3517	2664	1
0	3523	2668	1
0	3530	2672	1
0	3537	2676	1
0	3540	2680	1
0	3545	2684	1
0	3551	2688	1
0	3558	2692	1
0	3564	2696	1
0	3567	2700	1
0	3571	2704	1
0	3577	2708	1
0	3584	2712	1
0	3590	2716	1
0	3593	2720	1
0	3597	2724	1
0	3603	2728	1
0	3609	2732	1
0	3615	2736	1
0	3618	2740	1
0	3623	2744	1
0	3629	2748	1
0	3635	2752	1
0	3640	2756	1
0	3643	2760	1
0	3648	2764	1
0	3654	2768	1
0	3660	2772	1
0	3667	2776	1
0	3670	2780	1
0	3676	2784	1
0	3683	2788	1
0	3689	2792	1
0	3694	2796	1
0	3697	2800	1
0	3701	2804	1
0	3706	2808	1
0	3711	2812	1
0	3716	2816	1
0	3719	2820	1
0	3724	2824	1
0	3731	2828	1
0	3738	2832	1
0	3745	2836	1
0	3748	2840	1
0	3754	2844	1
0	3761	2848	1
0	3768	2852	1
0	3774	2856	1
0	3777	2860	1
0	3782	2864	1
0	3788	2868	1
0	3793	2872	1
0	3798	2876	1
0	3801	2880	1
0	3806	2884	1
0	3813	2888	1
0	3820	2892	1
0	3826	2896	1
0	3829	2900	1
0	3834	2904	1
0	3841	2908	1
0	3847	2912	1
0	3853	2916	1
0	3856	2920	1
0	3863	2924	1
0	3868	2928	1
0	3873	2932	1
0	3878	2936	1
0	3881	2940	1
0	3885	2944	1
0	3890	2948	1
0	3896	2952	1
0	3903	2956	1
0	3906	2960	1
0	3911	2964	1
0	3916	2968	1
0	3921	2972	1
0	3927	2976	1
0	3930	2980	1
0	3935	2984	1
0	3940	2988	1
0	3945	2992	1
0	3950	2996	1
0	3953	3000	1
0	3957	3004	1
0	3962	3008	1
0	3968	3012	1
0	3975	3016	1
0	3978	3020	1
0	3984	3024	1
0	3991	3028	1
0	3997	3032	1
0	4002	3036	1
0	4005	3040	1
0	4010	3044	1
0	4017	3048	1
0	4024	3052	1
0	4030	3056	1
0	4033	3060	1
0	4037	3064	1
0	4043	3068	1
0	4049	3072	1
0	4055	3076	1
0	4058	3080	1
0	4064	3084	1
0	4070	3088	1
0	4076	3092	1
0	4083	3096	1
0	4086	3100	1
0	4091	3104	1
0	4097	3108	1
0	4103	3112	1
0	4108	3116	1
0	4111	3120	1
0	4116	3124	1
0	4123	3128	1
0	4129	3132	1
0	4134	3136	1
0	4137	3140	1
0	4142	3144	1
0	4149	3148	1
0	4155	3152	1
0	4161	3156	1
0	4164	3160	1
0	4169	3164	1
0	4175	3168	1
0	4181	3172	1
0	4187	3176	1
0	4190	3180	1
0	4195	3184	1
0	4201	3188	1
0	4207	3192	1
0	4213	3196	1
0	4216	3200	1
0	4221	3204	1
0	4226	3208	1
0	4232	3212	1
0	4238	3216	1
0	4241	3220	1
0	4245	3224	1
0	4250	3228	1
0	4256	3232	1
0	4262	3236	1
0	4265	3240	1
0	4269	3244	1
0	4275	3248	1
0	4282	3252	1
0	4289	3256	1
0	4292	3260	1
0	4298	3264	1
0	4305	3268	1
0	4312	3272	1
0	4319	3276	1
0	4322	3280	1
0	4327	3284	1
0	4333	3288	1
0	4340	3292	1
0	4347	3296	1
0	4350	3300	1
0	4356	3304	1
0	4363	3308	1
0	4369	3312	1
0	4374	3316	1
0	4377	3320	1
0	4382	3324	1
0	4388	3328	1
0	4394	3332	1
0	4400	3336	1
0	4403	3340	1
0	4408	3344	1
0	4415	3348	1
0	4421	3352	1
0	4427	3356	1
0	4430	3360	1
0	4435	3364	1
0	4440	3368	1
0	4446	3372	1
0	4453	3376	1
0	4456	3380	1
0	4461	3384	1
0	4466	3388	1
0	4472	3392	1
0	4479	3396	1
0	4482	3400	1
0	4488	3404	1
0	4494	3408	1
0	4499	3412	1
0	4505	3416	1
0	4508	3420	1
0	4514	3424	1
0	4521	3428	1
0	4527	3432	1
0	4533	3436	1
0	4536	3440	1
0	4541	3444	1
0	4547	3448	1
0	4554	3452	1
0	4560	3456	1
0	4563	3460	1
0	4568	3464	1
0	4574	3468	1
0	4580	3472	1
0	4586	3476	1
0	4589	3480	1
0	4594	3484	1
0	4601	3488	1
0	4607	3492	1
0	4613	3496	1
0	4616	3500	1
0	4621	3504	1
0	4627	3508	1
0	4634	3512	1
0	4641	3516	1
0	4644	3520	1
0	4649	3524	1
0	4655	3528	1
0	4661	3532	1
0	4667	3536	1
0	4670	3540	1
0	4675	3544	1
0	4681	3548	1
0	4688	3552	1
0	4695	3556	1
0	4698	3560	1
0	4704	3564	1
0	4710	3568	1
0	4715	3572	1
0	4721	3576	1
0	4724	3580	1
0	4729	3584	1
0	4735	3588	1
0	4742	3592	1
0	4749	3596	1
0	4752	3600	1
1	2	4	1
1	9	8	1
1	14	12	1
1	19	16	1
1	22	20	1
1	26	24	1
1	31	28	1
1	37	32	1
1	44	36	1
1	47	40	1
1	54	44	1
1	59	48	1
1	64	52	1
1	69	56	1
1	72	60	1
1	76	64	1
1	82	68	1
1	89	72	1
1	96	76	1
1	99	80	1
1	104	84	1
1	110	88	1
1	118	92	1
1	123	96	1
1	126	100	1
1	130	104	1
1	135	108	1
1	140	112	1
1	146	116	1
1	149	120	1
1	155	124	1
1	162	128	1
1	169	132	1
1	176	136	1
1	179	140	1
1	184	144	1
1	190	148	1
1	198	152	1
1	203	156	1
1	206	160	1
1	210	164	1
1	216	168	1
1	222	172	1
1	228	176	1
1	231	180	1
1	238	184	1
1	243	188	1
1	248	192	1
1	254	196	1
1	257	200	1
1	262	204	1
1	268	208	1
1	274	212	1
1	279	216	1
1	282	220	1
1	287	224	1
1	294	228	1
1	301	232	1
1	309	236	1
1	312	240	1
1	316	244	1
1	321	248	1
1	326	252	1
1	331	256	1
1	334	260	1
1	338	264	1
1	343	268	1
1	349	272	1
1	356	276	1
1	359	280	1
1	365	284	1
1	372	288	1
1	380	292	1
1	385	296	1
1	388	300	1
1	392	304	1
1	397	308	1
1	402	312	1
1	407	316	1
1	410	320	1
1	416	324	1
1	421	328	1
1	426	332	1
1	431	336	1
1	434	340	1
1	438	344	1
1	443	348	1
1	449	352	1
1	455	356	1
1	458	360	1
1	463	364	1
1	470	368	1
1	477	372	1
1	485	376	1
1	488	380	1
1	492	384	1
1	497	388	1
1	502	392	1
1	508	396	1
1	511	400	1
1	518	404	1
1	523	408	1
1	528	412	1
1	533	416	1
1	536	420	1
1	541	424	1
1	547	428	1
1	553	432	1
1	559	436	1
1	562	440	1
1	566	444	1
1	572	448	1
1	580	452	1
1	585	456	1
1	588	460	1
1	592	464	1
1	597	468	1
1	603	472	1
1	610	476	1
1	613	480	1
1	618	484	1
1	623	488	1
1	629	492	1
1	637	496	1
1	640	500	1
1	644	504	1
1	649	508	1
1	654	512	1
1	659	516	1
1	662	520	1
1	666	524	1
1	672	528	1
1	679	532	1
1	686	536	1
1	689	540	1
1	695	544	1
1	703	548	1
1	708	552	1
1	713	556	1
1	716	560	1
1	721	564	1
1	728	568	1
1	734	572	1
1	739	576	1
1	742	580	1
1	747	584	1
1	753	588	1
1	759	592	1
1	766	596	1
1	769	600	1
1	775	604	1
1	782	608	1
1	789	612	1
1	795	616	1
1	798	620	1
1	803	624	1
1	809	628	1
1	816	632	1
1	821	636	1
1	824	640	1
1	828	644	1
1	833	648	1
1	838	652	1
1	843	656	1
1	846	660	1
1	851	664	1
1	858	668	1
1	865	672	1
1	872	676	1
1	875	680	1
1	880	684	1
1	886	688	1
1	893	692	1
1	900	696	1
1	903	700	1
1	909	704	1
1	916	708	1
1	923	712	1
1	930	716	1
1	933	720	1
1	938	724	1
1	943	728	1
1	948	732	1
1	954	736	1
1	957	740	1
1	962	744	1
1	968	748	1
1	975	752	1
1	982	756	1
1	985	760	1
1	991	764	1
1	998	768	1
1	1005	772	1
1	1012	776	1
1	1015	780	1
1	1020	784	1
1	1026	788	1
1	1033	792	1
1	1040	796	1
1	1043	800	1
1	1048	804	1
1	1054	808	1
1	1061	812	1
1	1068	816	1
1	1071	820	1
1	1077	824	1
1	1084	828	1
1	1092	832	1
1	1097	836	1
1	1100	840	1
1	1104	844	1
1	1109	848	1
1	1114	852	1
1	1119	856	1
1	1122	860	1
1	1126	864	1
1	1132	868	1
1	1140	872	1
1	1145	876	1
1	1148	880	1
1	1152	884	1
1	1157	888	1
1	1163	892	1
1	1169	896	1
1	1172	900	1
1	1177	904	1
1	1183	908	1
1	1189	912	1
1	1197	916	1
1	1200	920	1
1	1204	924	1
1	1209	928	1
1	1214	932	1
1	1220	936	1
1	1223	940	1
1	1229	944	1
1	1235	948	1
1	1241	952	1
1	1247	956	1
1	1250	960	1
1	1255	964	1
1	1262	968	1
1	1268	972	1
1	1273	976	1
1	1276	980	1
1	1280	984	1
1	1285	988	1
1	1292	992	1
1	1297	996	1
1	1300	1000	1
1	1304	1004	1
1	1309	1008	1
1	1314	1012	1
1	1319	1016	1
1	1322	1020	1
1	1327	1024	1
1	1334	1028	1
1	1341	1032	1
1	1349	1036	1
1	1352	1040	1
1	1356	1044	1
1	1361	1048	1
1	1366	1052	1
1	1371	1056	1
1	1374	1060	1
1	1378	1064	1
1	1384	1068	1
1	1392	1072	1
1	1397	1076	1
1	1400	1080	1
1	1404	1084	1
1	1409	1088	1
1	1414	1092	1
1	1419	1096	1
1	1422	1100	1
1	1427	1104	1
1	1435	1108	1
1	1440	1112	1
1	1445	1116	1
1	1448	1120	1
1	1452	1124	1
1	1457	1128	1
1	1462	1132	1
1	1468	1136	1
1	1471	1140	1
1	1477	1144	1
1	1483	1148	1
1	1489	1152	1
1	1495	1156	1
1	1498	1160	1
1	1503	1164	1
1	1510	1168	1
1	1517	1172	1
1	1523	1176	1
1	1526	1180	1
1	1531	1184	1
1	1538	1188	1
1	1544	1192	1
1	1550	1196	1
1	1553	1200	1
1	1559	1204	1
1	1567	1208	1
1	1572	1212	1
1	1577	1216	1
1	1580	1220	1
1	1584	1224	1
1	1589	1228	1
1	1595	1232	1
1	1602	1236	1
1	1605	1240	1
1	1611	1244	1
1	1618	1248	1
1	1624	1252	1
1	1629	1256	1
1	1632	1260	1
1	1637	1264	1
1	1644	1268	1
1	1651	1272	1
1	1658	1276	1
1	1661	1280	1
1	1666	1284	1
1	1671	1288	1
1	1677	1292	1
1	1684	1296	1
1	1687	1300	1
1	1692	1304	1
1	1698	1308	1
1	1705	1312	1
1	1711	1316	1
1	1714	1320	1
1	1719	1324	1
1	1725	1328	1
1	1732	1332	1
1	1737	1336	1
1	1740	1340	1
1	1744	1344	1
1	1750	1348	1
1	1757	1352	1
1	1763	1356	1
1	1766	1360	1
1	1771	1364	1
1	1778	1368	1
1	1784	1372	1
1	1790	1376	1
1	1793	1380	1
1	1798	1384	1
1	1803	1388	1
1	1809	1392	1
1	1816	1396	1
1	1819	1400	1
1	1824	1404	1
1	1829	1408	1
1	1834	1412	1
1	1840	1416	1
1	1843	1420	1
1	1849	1424	1
1	1855	1428	1
1	1861	1432	1
1	1868	1436	1
1	1871	1440	1
1	1877	1444	1
1	1883	1448	1
1	1888	1452	1
1	1894	1456	1
1	1897	1460	1
1	1903	1464	1
1	1911	1468	1
1	1916	1472	1
1	1921	1476	1
1	1924	1480	1
1	1928	1484	1
1	1934	1488	1
1	1941	1492	1
1	1948	1496	1
1	1951	1500	1
1	1957	1504	1
1	1964	1508	1
1	1971	1512	1
1	1978	1516	1
1	1981	1520	1
1	1986	1524	1
1	1991	1528	1
1	1997	1532	1
1	2003	1536	1
1	2006	1540	1
1	2011	1544	1
1	2017	1548	1
1	2023	1552	1
1	2030	1556	1
1	2033	1560	1
1	2039	1564	1
1	2046	1568	1
1	2052	1572	1
1	2057	1576	1
1	2060	1580	1
1	2065	1584	1
1	2072	1588	1
1	2079	1592	1
1	2086	1596	1
1	2089	1600	1
1	2094	1604	1
1	2100	1608	1
1	2106	1612	1
1	2112	1616	1
1	2115	1620	1
1	2120	1624	1
1	2125	1628	1
1	2131	1632	1
1	2138	1636	1
1	2141	1640	1
1	2147	1644	1
1	2153	1648	1
1	2159	1652	1
1	2165	1656	1
1	2168	1660	1
1	2173	1664	1
1	2180	1668	1
1	2187	1672	1
1	2193	1676	1
1	2196	1680	1
1	2200	1684	1
1	2205	1688	1
1	2211	1692	1
1	2218	1696	1
1	2221	1700	1
1	2227	1704	1
1	2234	1708	1
1	2241	1712	1
1	2248	1716	1
1	2251	1720	1
1	2257	1724	1
1	2263	1728	1
1	2269	1732	1
1	2276	1736	1
1	2279	1740	1
1	2285	1744	1
1	2292	1748	1
1	2299	1752	1
1	2306	1756	1
1	2309	1760	1
1	2314	1764	1
1	2319	1768	1
1	2324	1772	1
1	2329	1776	1
1	2332	1780	1
1	2336	1784	1
1	2341	1788	1
1	2346	1792	1
1	2352	1796	1
1	2355	1800	1
1	2361	1804	1
1	2368	1808	1
1	2375	1812	1
1	2381	1816	1
1	2384	1820	1
1	2389	1824	1
1	2396	1828	1
1	2403	1832	1
1	2410	1836	1
1	2413	1840	1
1	2418	1844	1
1	2423	1848	1
1	2428	1852	1
1	2434	1856	1
1	2437	1860	1
1	2442	1864	1
1	2448	1868	1
1	2455	1872	1
1	2462	1876	1
1	2465	1880	1
1	2470	1884	1
1	2476	1888	1
1	2482	1892	1
1	2487	1896	1
1	2490	1900	1
1	2495	1904	1
1	2502	1908	1
1	2509	1912	1
1	2515	1916	1
1	2518	1920	1
1	2523	1924	1
1	2530	1928	1
1	2537	1932	1
1	2543	1936	1
1	2546	1940	1
1	2550	1944	1
1	2555	1948	1
1	2561	1952	1
1	2567	1956	1
1	2570	1960	1
1	2575	1964	1
1	2581	1968	1
1	2586	1972	1
1	2591	1976	1
1	2594	1980	1
1	2599	1984	1
1	2606	1988	1
1	2613	1992	1
1	2619	1996	1
1	2622	2000	1
1	2627	2004	1
1	2634	2008	1
1	2641	2012	1
1	2648	2016	1
1	2651	2020	1
1	2657	2024	1
1	2664	2028	1
1	2670	2032	1
1	2676	2036	1
1	2679	2040	1
1	2686	2044	1
1	2691	2048	1
1	2696	2052	1
1	2701	2056	1
1	2704	2060	1
1	2708	2064	1
1	2713	2068	1
1	2719	2072	1
1	2726	2076	1
1	2729	2080	1
1	2735	2084	1
1	2742	2088	1
1	2749	2092	1
1	2755	2096	1
1	2758	2100	1
1	2762	2104	1
1	2767	2108	1
1	2772	2112	1
1	2778	2116	1
1	2781	2120	1
1	2787	2124	1
1	2794	2128	1
1	2801	2132	1
1	2808	2136	1
1	2811	2140	1
1	2817	2144	1
1	2824	2148	1
1	2831	2152	1
1	2837	2156	1
1	2840	2160	1
1	2844	2164	1
1	2850	2168	1
1	2857	2172	1
1	2863	2176	1
1	2866	2180	1
1	2871	2184	1
1	2878	2188	1
1	2884	2192	1
1	2889	2196	1
1	2892	2200	1
1	2896	2204	1
1	2902	2208	1
1	2909	2212	1
1	2915	2216	1
1	2918	2220	1
1	2923	2224	1
1	2930	2228	1
1	2936	2232	1
1	2942	2236	1
1	2945	2240	1
1	2950	2244	1
1	2955	2248	1
1	2961	2252	1
1	2968	2256	1
1	2971	2260	1
1	2976	2264	1
1	2981	2268	1
1	2986	2272	1
1	2992	2276	1
1	2995	2280	1
1	3001	2284	1
1	3007	2288	1
1	3013	2292	1
1	3020	2296	1
1	3023	2300	1
1	3029	2304	1
1	3035	2308	1
1	3040	2312	1
1	3046	2316	1
1	3049	2320	1
1	3054	2324	1
1	3059	2328	1
1	3064	2332	1
1	3070	2336	1
1	3073	2340	1
1	3079	2344	1
1	3086	2348	1
1	3093	2352	1
1	3100	2356	1
1	3103	2360	1
1	3108	2364	1
1	3114	2368	1
1	3120	2372	1
1	3126	2376	1
1	3129	2380	1
1	3135	2384	1
1	3142	2388	1
1	3148	2392	1
1	3154	2396	1
1	3157	2400	1
1	3162	2404	1
1	3168	2408	1
1	3175	2412	1
1	3181	2416	1
1	3184	2420	1
1	3188	2424	1
1	3193	2428	1
1	3199	2432	1
1	3206	2436	1
1	3209	2440	1
1	3214	2444	1
1	3220	2448	1
1	3226	2452	1
1	3232	2456	1
1	3235	2460	1
1	3241	2464	1
1	3247	2468	1
1	3253	2472	1
1	3260	2476	1
1	3263	2480	1
1	3269	2484	1
1	3276	2488	1
1	3282	2492	1
1	3287	2496	1
1	3290	2500	1
1	3294	2504	1
1	3299	2508	1
1	3305	2512	1
1	3312	2516	1
1	3315	2520	1
1	3321	2524	1
1	3328	2528	1
1	3335	2532	1
1	3342	2536	1
1	3345	2540	1
1	3351	2544	1
1	3358	2548	1
1	3365	2552	1
1	3372	2556	1
1	3375	2560	1
1	3381	2564	1
1	3388	2568	1
1	3395	2572	1
1	3402	2576	1
1	3405	2580	1
1	3410	2584	1
1	3416	2588	1
1	3423	2592	1
1	3429	2596	1
1	3432	2600	1
1	3436	2604	1
1	3442	2608	1
1	3449	2612	1
1	3455	2616	1
1	3458	2620	1
1	3463	2624	1
1	3470	2628	1
1	3477	2632	1
1	3484	2636	1
1	3487	2640	1
1	3493	2644	1
1	3499	2648	1
1	3505	2652	1
1	3511	2656	1
1	3514	2660	1
1	3518	2664	1
1	3524	2668	1
1	3531	2672	1
1	3538	2676	1
1	3541	2680	1
1	3546	2684	1
1	3552	2688	1
1	3559	2692	1
1	3565	2696	1
1	3568	2700	1
1	3572	2704	1
1	3578	2708	1
1	3585	2712	1
1	3591	2716	1
1	3594	2720	1
1	3598	2724	1
1	3604	2728	1
1	3610	2732	1
1	3616	2736	1
1	3619	2740	1
1	3624	2744	1
1	3630	2748	1
1	3636	2752	1
1	3641	2756	1
1	3644	2760	1
1	3649	2764	1
1	3655	2768	1
1	3661	2772	1
1	3668	2776	1
1	3671	2780	1
1	3677	2784	1
1	3684	2788	1
1	3690	2792	1
1	3695	2796	1
1	3698	2800	1
1	3702	2804	1
1	3707	2808	1
1	3712	2812	1
1	3717	2816	1
1	3720	2820	1
1	3725	2824	1
1	3732	2828	1
1	3739	2832	1
1	3746	2836	1
1	3749	2840	1
1	3755	2844	1
1	3762	2848	1
1	3769	2852	1
1	3775	2856	1
1	3778	2860	1
1	3783	2864	1
1	3789	2868	1
1	3794	2872	1
1	3799	2876	1
1	3802	2880	1
1	3807	2884	1
1	3814	2888	1
1	3821	2892	1
1	3827	2896	1
1	3830	2900	1
1	3835	2904	1
1	3842	2908	1
1	3848	2912	1
1	3854	2916	1
1	3857	2920	1
1	3864	2924	1
1	3869	2928	1
1	3874	2932	1
1	3879	2936	1
1	3882	2940	1
1	3886	2944	1
1	3891	2948	1
1	3897	2952	1
1	3904	2956	1
1	3907	2960	1
1	3912	2964	1
1	3917	2968	1
1	3922	2972	1
1	3928	2976	1
1	3931	2980	1
1	3936	2984	1
1	3941	2988	1
1	3946	2992	1
1	3951	2996	1
1	3954	3000	1
1	3958	3004	1
1	3963	3008	1
1	3969	3012	1
1	3976	3016	1
1	3979	3020	1
1	3985	3024	1
1	3992	3028	1
1	3998	3032	1
1	4003	3036	1
1	4006	3040	1
1	4011	3044	1
1	4018	3048	1
1	4025	3052	1
1	4031	3056	1
1	4034	3060	1
1	4038	3064	1
1	4044	3068	1
1	4050	3072	1
1	4056	3076	1
1	4059	3080	1
1	4065	3084	1
1	4071	3088	1
1	4077	3092	1
1	4084	3096	1
1	4087	3100	1
1	4092	3104	1
1	4098	3108	1
1	4104	3112	1
1	4109	3116	1
1	4112	3120	1
1	4117	3124	1
1	4124	3128	1
1	4130	3132	1
1	4135	3136	1
1	4138	3140	1
1	4143	3144	1
1	4150	3148	1
1	4156	3152	1
1	4162	3156	1
1	4165	3160	1
1	4170	3164	1
1	4176	3168	1
1	4182	3172	1
1	4188	3176	1
1	4191	3180	1
1	4196	3184	1
1	4202	3188	1
1	4208	3192	1
1	4214	3196	1
1	4217	3200	1
1	4222	3204	1
1	4227	3208	1
1	4233	3212	1
1	4239	3216	1
1	4242	3220	1
1	4246	3224	1
1	4251	3228	1
1	4257	3232	1
1	4263	3236	1
1	4266	3240	1
1	4270	3244	1
1	4276	3248	1
1	4283	3252	1
1	4290	3256	1
1	4293	3260	1
1	4299	3264	1
1	4306	3268	1
1	4313	3272	1
1	4320	3276	1
1	4323	3280	1
1	4328	3284	1
1	4334	3288	1
1	4341	3292	1
1	4348	3296	1
1	4351	3300	1
1	4357	3304	1
1	4364	3308	1
1	4370	3312	1
1	4375	3316	1
1	4378	3320	1
1	4383	3324	1
1	4389	3328	1
1	4395	3332	1
1	4401	3336	1
1	4404	3340	1
1	4409	3344	1
1	4416	3348	1
1	4422	3352	1
1	4428	3356	1
1	4431	3360	1
1	4436	3364	1
1	4441	3368	1
1	4447	3372	1
1	4454	3376	1
1	4457	3380	1
1	4462	3384	1
1	4467	3388	1
1	4473	3392	1
1	4480	3396	1
1	4483	3400	1
1	4489	3404	1
1	4495	3408	1
1	4500	3412	1
1	4506	3416	1
1	4509	3420	1
1	4515	3424	1
1	4522	3428	1
1	4528	3432	1
1	4534	3436	1
1	4537	3440	1
1	4542	3444	1
1	4548	3448	1
1	4555	3452	1
1	4561	3456	1
1	4564	3460	1
1	4569	3464	1
1	4575	3468	1
1	4581	3472	1
1	4587	3476	1
1	4590	3480	1
1	4595	3484	1
1	4602	3488	1
1	4608	3492	1
1	4614	3496	1
1	4617	3500	1
1	4622	3504	1
1	4628	3508	1
1	4635	3512	1
1	4642	3516	1
1	4645	3520	1
1	4650	3524	1
1	4656	3528	1
1	4662	3532	1
1	4668	3536	1
1	4671	3540	1
1	4676	3544	1
1	4682	3548	1
1	4689	3552	1
1	4696	3556	1
1	4699	3560	1
1	4705	3564	1
1	4711	3568	1
1	4716	3572	1
1	4722	3576	1
1	4725	3580	1
1	4730	3584	1
1	4736	3588	1
1	4743	3592	1
1	4750	3596	1
1	4753	3600	1
2	3	5	0
2	10	10	0
2	15	15	0
2	20	20	0
2	27	25	0
2	32	30	0
2	38	35	1
2	45	40	1
2	55	45	0
2	60	50	0
2	65	55	0
2	70	60	0
2	77	65	0
2	83	70	1
2	90	75	1
2	97	80	1
2	105	85	0
2	111	90	1
2	119	95	0
2	124	100	0
2	131	105	0
2	136	110	0
2	141	115	0
2	147	120	1
2	156	125	1
2	163	130	1
2	170	135	1
2	177	140	1
2	185	145	0
2	191	150	1
2	199	155	0
2	204	160	0
2	211	165	0
2	217	170	1
2	223	175	0
2	229	180	1
2	239	185	0
2	244	190	0
2	249	195	0
2	255	200	1
2	263	205	0
2	269	210	1
2	275	215	0
2	280	220	0
2	288	225	1
2	295	230	1
2	302	235	1
2	310	240	0
2	317	245	0
2	322	250	0
2	327	255	0
2	332	260	0
2	339	265	0
2	344	270	0
2	350	275	1
2	357	280	1
2	366	285	1
2	373	290	1
2	381	295	0
2	386	300	0
2	393	305	0
2	398	310	0
2	403	315	0
2	408	320	0
2	417	325	0
2	422	330	0
2	427	335	0
2	432	340	0
2	439	345	0
2	444	350	0
2	450	355	1
2	456	360	0
2	464	365	1
2	471	370	1
2	478	375	1
2	486	380	0
2	493	385	0
2	498	390	0
2	503	395	0
2	509	400	1
2	519	405	0
2	524	410	0
2	529	415	0
2	534	420	0
2	542	425	1
2	548	430	0
2	554	435	1
2	560	440	0
2	567	445	0
2	573	450	1
2	581	455	0
2	586	460	0
2	593	465	0
2	598	470	0
2	604	475	1
2	611	480	1
2	619	485	0
2	624	490	0
2	630	495	1
2	638	500	0
2	645	505	0
2	650	510	0
2	655	515	0
2	660	520	0
2	667	525	0
2	673	530	1
2	680	535	1
2	687	540	1
2	696	545	1
2	704	550	0
2	709	555	0
2	714	560	0
2	722	565	1
2	729	570	1
2	735	575	0
2	740	580	0
2	748	585	1
2	754	590	0
2	760	595	1
2	767	600	1
2	776	605	1
2	783	610	1
2	790	615	1
2	796	620	0
2	804	625	1
2	810	630	0
2	817	635	0
2	822	640	0
2	829	645	0
2	834	650	0
2	839	655	0
2	844	660	0
2	852	665	1
2	859	670	1
2	866	675	1
2	873	680	1
2	881	685	0
2	887	690	1
2	894	695	1
2	901	700	1
2	910	705	1
2	917	710	1
2	924	715	1
2	931	720	1
2	939	725	0
2	944	730	0
2	949	735	0
2	955	740	1
2	963	745	0
2	969	750	1
2	976	755	1
2	983	760	1
2	992	765	1
2	999	770	1
2	1006	775	1
2	1013	780	1
2	1021	785	0
2	1027	790	1
2	1034	795	1
2	1041	800	1
2	1049	805	0
2	1055	810	1
2	1062	815	1
2	1069	820	1
2	1078	825	1
2	1085	830	1
2	1093	835	0
2	1098	840	0
2	1105	845	0
2	1110	850	0
2	1115	855	0
2	1120	860	0
2	1127	865	0
2	1133	870	1
2	1141	875	0
2	1146	880	0
2	1153	885	0
2	1158	890	0
2	1164	895	1
2	1170	900	0
2	1178	905	1
2	1184	910	0
2	1190	915	1
2	1198	920	0
2	1205	925	0
2	1210	930	0
2	1215	935	0
2	1221	940	1
2	1230	945	1
2	1236	950	0
2	1242	955	1
2	1248	960	0
2	1256	965	1
2	1263	970	1
2	1269	975	0
2	1274	980	0
2	1281	985	0
2	1286	990	0
2	1293	995	0
2	1298	1000	0
2	1305	1005	0
2	1310	1010	0
2	1315	1015	0
2	1320	1020	0
2	1328	1025	1
2	1335	1030	1
2	1342	1035	1
2	1350	1040	0
2	1357	1045	0
2	1362	1050	0
2	1367	1055	0
2	1372	1060	0
2	1379	1065	0
2	1385	1070	1
2	1393	1075	0
2	1398	1080	0
2	1405	1085	0
2	1410	1090	0
2	1415	1095	0
2	1420	1100	0
2	1428	1105	1
2	1436	1110	0
2	1441	1115	0
2	1446	1120	0
2	1453	1125	0
2	1458	1130	0
2	1463	1135	0
2	1469	1140	1
2	1478	1145	1
2	1484	1150	0
2	1490	1155	1
2	1496	1160	0
2	1504	1165	1
2	1511	1170	1
2	1518	1175	1
2	1524	1180	0
2	1532	1185	1
2	1539	1190	1
2	1545	1195	0
2	1551	1200	1
2	1560	1205	1
2	1568	1210	0
2	1573	1215	0
2	1578	1220	0
2	1585	1225	0
2	1590	1230	0
2	1596	1235	1
2	1603	1240	1
2	1612	1245	1
2	1619	1250	1
2	1625	1255	0
2	1630	1260	0
2	1638	1265	1
2	1645	1270	1
2	1652	1275	1
2	1659	1280	1
2	1667	1285	0
2	1672	1290	0
2	1678	1295	1
2	1685	1300	1
2	1693	1305	0
2	1699	1310	1
2	1706	1315	1
2	1712	1320	0
2	1720	1325	1
2	1726	1330	0
2	1733	1335	0
2	1738	1340	0
2	1745	1345	0
2	1751	1350	1
2	1758	1355	1
2	1764	1360	0
2	1772	1365	1
2	1779	1370	1
2	1785	1375	0
2	1791	1380	1
2	1799	1385	0
2	1804	1390	0
2	1810	1395	1
2	1817	1400	1
2	1825	1405	0
2	1830	1410	0
2	1835	1415	0
2	1841	1420	1
2	1850	1425	1
2	1856	1430	0
2	1862	1435	1
2	1869	1440	1
2	1878	1445	1
2	1884	1450	0
2	1889	1455	0
2	1895	1460	1
2	1904	1465	1
2	1912	1470	0
2	1917	1475	0
2	1922	1480	0
2	1929	1485	0
2	1935	1490	1
2	1942	1495	1
2	1949	1500	1
2	1958	1505	1
2	1965	1510	1
2	1972	1515	1
2	1979	1520	1
2	1987	1525	0
2	1992	1530	0
2	1998	1535	1
2	2004	1540	0
2	2012	1545	1
2	2018	1550	0
2	2024	1555	1
2	2031	1560	1
2	2040	1565	1
2	2047	1570	1
2	2053	1575	0
2	2058	1580	0
2	2066	1585	1
2	2073	1590	1
2	2080	1595	1
2	2087	1600	1
2	2095	1605	0
2	2101	1610	1
2	2107	1615	0
2	2113	1620	1
2	2121	1625	0
2	2126	1630	0
2	2132	1635	1
2	2139	1640	1
2	2148	1645	1
2	2154	1650	0
2	2160	1655	1
2	2166	1660	0
2	2174	1665	1
2	2181	1670	1
2	2188	1675	1
2	2194	1680	0
2	2201	1685	0
2	2206	1690	0
2	2212	1695	1
2	2219	1700	1
2	2228	1705	1
2	2235	1710	1
2	2242	1715	1
2	2249	1720	1
2	2258	1725	1
2	2264	1730	0
2	2270	1735	1
2	2277	1740	1
2	2286	1745	1
2	2293	1750	1
2	2300	1755	1
2	2307	1760	1
2	2315	1765	0
2	2320	1770	0
2	2325	1775	0
2	2330	1780	0
2	2337	1785	0
2	2342	1790	0
2	2347	1795	0
2	2353	1800	1
2	2362	1805	1
2	2369	1810	1
2	2376	1815	1
2	2382	1820	0
2	2390	1825	1
2	2397	1830	1
2	2404	1835	1
2	2411	1840	1
2	2419	1845	0
2	2424	1850	0
2	2429	1855	0
2	2435	1860	1
2	2443	1865	0
2	2449	1870	1
2	2456	1875	1
2	2463	1880	1
2	2471	1885	0
2	2477	1890	1
2	2483	1895	0
2	2488	1900	0
2	2496	1905	1
2	2503	1910	1
2	2510	1915	1
2	2516	1920	0
2	2524	1925	1
2	2531	1930	1
2	2538	1935	1
2	2544	1940	0
2	2551	1945	0
2	2556	1950	0
2	2562	1955	1
2	2568	1960	0
2	2576	1965	1
2	2582	1970	0
2	2587	1975	0
2	2592	1980	0
2	2600	1985	1
2	2607	1990	1
2	2614	1995	1
2	2620	2000	0
2	2628	2005	1
2	2635	2010	1
2	2642	2015	1
2	2649	2020	1
2	2658	2025	1
2	2665	2030	1
2	2671	2035	0
2	2677	2040	1
2	2687	2045	0
2	2692	2050	0
2	2697	2055	0
2	2702	2060	0
2	2709	2065	0
2	2714	2070	0
2	2720	2075	1
2	2727	2080	1
2	2736	2085	1
2	2743	2090	1
2	2750	2095	1
2	2756	2100	0
2	2763	2105	0
2	2768	2110	0
2	2773	2115	0
2	2779	2120	1
2	2788	2125	1
2	2795	2130	1
2	2802	2135	1
2	2809	2140	1
2	2818	2145	1
2	2825	2150	1
2	2832	2155	1
2	2838	2160	0
2	2845	2165	0
2	2851	2170	1
2	2858	2175	1
2	2864	2180	0
2	2872	2185	1
2	2879	2190	1
2	2885	2195	0
2	2890	2200	0
2	2897	2205	0
2	2903	2210	1
2	2910	2215	1
2	2916	2220	0
2	2924	2225	1
2	2931	2230	1
2	2937	2235	0
2	2943	2240	1
2	2951	2245	0
2	2956	2250	0
2	2962	2255	1
2	2969	2260	1
2	2977	2265	0
2	2982	2270	0
2	2987	2275	0
2	2993	2280	1
2	3002	2285	1
2	3008	2290	0
2	3014	2295	1
2	3021	2300	1
2	3030	2305	1
2	3036	2310	0
2	3041	2315	0
2	3047	2320	1
2	3055	2325	0
2	3060	2330	0
2	3065	2335	0
2	3071	2340	1
2	3080	2345	1
2	3087	2350	1
2	3094	2355	1
2	3101	2360	1
2	3109	2365	0
2	3115	2370	1
2	3121	2375	0
2	3127	2380	1
2	3136	2385	1
2	3143	2390	1
2	3149	2395	0
2	3155	2400	1
2	3163	2405	0
2	3169	2410	1
2	3176	2415	1
2	3182	2420	0
2	3189	2425	0
2	3194	2430	0
2	3200	2435	1
2	3207	2440	1
2	3215	2445	0
2	3221	2450	1
2	3227	2455	0
2	3233	2460	1
2	3242	2465	1
2	3248	2470	0
2	3254	2475	1
2	3261	2480	1
2	3270	2485	1
2	3277	2490	1
2	3283	2495	0
2	3288	2500	0
2	3295	2505	0
2	3300	2510	0
2	3306	2515	1
2	3313	2520	1
2	3322	2525	1
2	3329	2530	1
2	3336	2535	1
2	3343	2540	1
2	3352	2545	1
2	3359	2550	1
2	3366	2555	1
2	3373	2560	1
2	3382	2565	1
2	3389	2570	1
2	3396	2575	1
2	3403	2580	1
2	3411	2585	0
2	3417	2590	1
2	3424	2595	1
2	3430	2600	0
2	3437	2605	0
2	3443	2610	1
2	3450	2615	1
2	3456	2620	0
2	3464	2625	1
2	3471	2630	1
2	3478	2635	1
2	3485	2640	1
2	3494	2645	1
2	3500	2650	0
2	3506	2655	1
2	3512	2660	0
2	3519	2665	0
2	3525	2670	1
2	3532	2675	1
2	3539	2680	1
2	3547	2685	0
2	3553	2690	1
2	3560	2695	1
2	3566	2700	0
2	3573	2705	0
2	3579	2710	1
2	3586	2715	1
2	3592	2720	0
2	3599	2725	0
2	3605	2730	1
2	3611	2735	0
2	3617	2740	1
2	3625	2745	0
2	3631	2750	1
2	3637	2755	0
2	3642	2760	0
2	3650	2765	1
2	3656	2770	0
2	3662	2775	1
2	3669	2780	1
2	3678	2785	1
2	3685	2790	1
2	3691	2795	0
2	3696	2800	0
2	3703	2805	0
2	3708	2810	0
2	3713	2815	0
2	3718	2820	0
2	3726	2825	1
2	3733	2830	1
2	3740	2835	1
2	3747	2840	1
2	3756	2845	1
2	3763	2850	1
2	3770	2855	1
2	3776	2860	0
2	3784	2865	1
2	3790	2870	0
2	3795	2875	0
2	3800	2880	0
2	3808	2885	1
2	3815	2890	1
2	3822	2895	1
2	3828	2900	0
2	3836	2905	1
2	3843	2910	1
2	3849	2915	0
2	3855	2920	1
2	3865	2925	0
2	3870	2930	0
2	3875	2935	0
2	3880	2940	0
2	3887	2945	0
2	3892	2950	0
2	3898	2955	1
2	3905	2960	1
2	3913	2965	0
2	3918	2970	0
2	3923	2975	0
2	3929	2980	1
2	3937	2985	0
2	3942	2990	0
2	3947	2995	0
2	3952	3000	0
2	3959	3005	0
2	3964	3010	0
2	3970	3015	1
2	3977	3020	1
2	3986	3025	1
2	3993	3030	1
2	3999	3035	0
2	4004	3040	0
2	4012	3045	1
2	4019	3050	1
2	4026	3055	1
2	4032	3060	0
2	4039	3065	0
2	4045	3070	1
2	4051	3075	0
2	4057	3080	1
2	4066	3085	1
2	4072	3090	0
2	4078	3095	1
2	4085	3100	1
2	4093	3105	0
2	4099	3110	1
2	4105	3115	0
2	4110	3120	0
2	4118	3125	1
2	4125	3130	1
2	4131	3135	0
2	4136	3140	0
2	4144	3145	1
2	4151	3150	1
2	4157	3155	0
2	4163	3160	1
2	4171	3165	0
2	4177	3170	1
2	4183	3175	0
2	4189	3180	1
2	4197	3185	0
2	4203	3190	1
2	4209	3195	0
2	4215	3200	1
2	4223	3205	0
2	4228	3210	0
2	4234	3215	1
2	4240	3220	0
2	4247	3225	0
2	4252	3230	0
2	4258	3235	1
2	4264	3240	0
2	4271	3245	0
2	4277	3250	1
2	4284	3255	1
2	4291	3260	1
2	4300	3265	1
2	4307	3270	1
2	4314	3275	1
2	4321	3280	1
2	4329	3285	0
2	4335	3290	1
2	4342	3295	1
2	4349	3300	1
2	4358	3305	1
2	4365	3310	1
2	4371	3315	0
2	4376	3320	0
2	4384	3325	1
2	4390	3330	0
2	4396	3335	1
2	4402	3340	0
2	4410	3345	1
2	4417	3350	1
2	4423	3355	0
2	4429	3360	1
2	4437	3365	0
2	4442	3370	0
2	4448	3375	1
2	4455	3380	1
2	4463	3385	0
2	4468	3390	0
2	4474	3395	1
2	4481	3400	1
2	4490	3405	1
2	4496	3410	0
2	4501	3415	0
2	4507	3420	1
2	4516	3425	1
2	4523	3430	1
2	4529	3435	0
2	4535	3440	1
2	4543	3445	0
2	4549	3450	1
2	4556	3455	1
2	4562	3460	0
2	4570	3465	1
2	4576	3470	0
2	4582	3475	1
2	4588	3480	0
2	4596	3485	1
2	4603	3490	1
2	4609	3495	0
2	4615	3500	1
2	4623	3505	0
2	4629	3510	1
2	4636	3515	1
2	4643	3520	1
2	4651	3525	0
2	4657	3530	1
2	4663	3535	0
2	4669	3540	1
2	4677	3545	0
2	4683	3550	1
2	4690	3555	1
2	4697	3560	1
2	4706	3565	1
2	4712	3570	0
2	4717	3575	0
2	4723	3580	1
2	4731	3585	0
2	4737	3590	1
2	4744	3595	1
2	4751	3600	1
3	25	24	1
3	30	28	1
3	36	32	1
3	43	36	1
3	46	40	1
3	53	44	1
3	58	48	1
3	63	52	1
3	68	56	1
3	71	60	1
3	75	64	1
3	81	68	1
3	88	72	1
3	95	76	1
3	98	80	1
3	103	84	1
3	109	88	1
3	122	96	1
3	125	100	1
3	129	104	1
3	134	108	1
3	139	112	1
3	145	116	1
3	148	120	1
3	161	128	1
3	168	132	1
3	175	136	1
3	178	140	1
3	183	144	1
3	189	148	1
3	202	156	1
3	205	160	1
3	209	164	1
3	215	168	1
3	227	176	1
3	230	180	1
3	242	188	1
3	247	192	1
3	253	196	1
3	256	200	1
3	267	208	1
3	278	216	1
3	281	220	1
3	286	224	1
3	293	228	1
3	300	232	1
3	308	236	1
3	311	240	1
3	315	244	1
3	320	248	1
3	325	252	1
3	330	256	1
3	333	260	1
3	337	264	1
3	342	268	1
3	348	272	1
3	355	276	1
3	358	280	1
3	364	284	1
3	371	288	1
3	379	292	1
3	384	296	1
3	387	300	1
3	391	304	1
3	396	308	1
3	401	312	1
3	406	316	1
3	409	320	1
3	415	324	1
3	420	328	1
3	425	332	1
3	430	336	1
3	433	340	1
3	437	344	1
3	442	348	1
3	448	352	1
3	457	360	1
3	462	364	1
3	484	376	1
3	487	380	1
3	491	384	1
3	496	388	1
3	501	392	1
3	507	396	1
3	510	400	1
3	517	404	1
3	522	408	1
3	527	412	1
3	532	416	1
3	535	420	1
3	540	424	1
3	546	428	1
3	552	432	1
3	561	440	1
3	565	444	1
3	571	448	1
3	584	456	1
3	587	460	1
3	591	464	1
3	596	468	1
3	602	472	1
3	609	476	1
3	612	480	1
3	617	484	1
3	622	488	1
3	628	492	1
3	636	496	1
3	639	500	1
3	643	504	1
3	648	508	1
3	653	512	1
3	658	516	1
3	661	520	1
3	665	524	1
3	671	528	1
3	678	532	1
3	685	536	1
3	688	540	1
3	694	544	1
3	702	548	1
3	707	552	1
3	712	556	1
3	715	560	1
3	720	564	1
3	727	568	1
3	733	572	1
3	738	576	1
3	741	580	1
3	746	584	1
3	752	588	1
3	758	592	1
3	765	596	1
3	768	600	1
3	774	604	1
3	781	608	1
3	788	612	1
3	794	616	1
3	797	620	1
3	802	624	1
3	808	628	1
3	815	632	1
3	820	636	1
3	823	640	1
3	827	644	1
3	832	648	1
3	837	652	1
3	842	656	1
3	845	660	1
3	850	664	1
3	857	668	1
3	864	672	1
3	871	676	1
3	874	680	1
3	879	684	1
3	885	688	1
3	892	692	1
3	899	696	1
3	902	700	1
3	908	704	1
3	915	708	1
3	922	712	1
3	929	716	1
3	932	720	1
3	937	724	1
3	942	728	1
3	947	732	1
3	953	736	1
3	956	740	1
3	961	744	1
3	967	748	1
3	974	752	1
3	981	756	1
3	984	760	1
3	990	764	1
3	997	768	1
3	1004	772	1
3	1011	776	1
3	1014	780	1
3	1019	784	1
3	1025	788	1
3	1032	792	1
3	1039	796	1
3	1042	800	1
3	1047	804	1
3	1053	808	1
3	1060	812	1
3	1067	816	1
3	1070	820	1
3	1076	824	1
3	1091	832	1
3	1096	836	1
3	1099	840	1
3	1103	844	1
3	1108	848	1
3	1113	852	1
3	1118	856	1
3	1121	860	1
3	1125	864	1
3	1131	868	1
3	1144	876	1
3	1147	880	1
3	1151	884	1
3	1156	888	1
3	1162	892	1
3	1171	900	1
3	1176	904	1
3	1188	912	1
3	1199	920	1
3	1203	924	1
3	1208	928	1
3	1213	932	1
3	1219	936	1
3	1222	940	1
3	1240	952	1
3	1249	960	1
3	1254	964	1
3	1272	976	1
3	1275	980	1
3	1279	984	1
3	1284	988	1
3	1291	992	1
3	1296	996	1
3	1299	1000	1
3	1303	1004	1
3	1308	1008	1
3	1313	1012	1
3	1318	1016	1
3	1321	1020	1
3	1326	1024	1
3	1340	1032	1
3	1348	1036	1
3	1351	1040	1
3	1355	1044	1
3	1360	1048	1
3	1365	1052	1
3	1370	1056	1
3	1373	1060	1
3	1377	1064	1
3	1383	1068	1
3	1396	1076	1
3	1399	1080	1
3	1403	1084	1
3	1408	1088	1
3	1413	1092	1
3	1418	1096	1
3	1421	1100	1
3	1426	1104	1
3	1439	1112	1
3	1444	1116	1
3	1447	1120	1
3	1451	1124	1
3	1456	1128	1
3	1461	1132	1
3	1467	1136	1
3	1470	1140	1
3	1488	1152	1
3	1497	1160	1
3	1502	1164	1
3	1525	1180	1
3	1530	1184	1
3	1549	1196	1
3	1552	1200	1
3	1571	1212	1
3	1576	1216	1
3	1579	1220	1
3	1583	1224	1
3	1588	1228	1
3	1594	1232	1
3	1604	1240	1
3	1628	1256	1
3	1631	1260	1
3	1636	1264	1
3	1660	1280	1
3	1670	1288	1
3	1676	1292	1
3	1686	1300	1
3	1697	1308	1
3	1713	1320	1
3	1718	1324	1
3	1731	1332	1
3	1736	1336	1
3	1739	1340	1
3	1743	1344	1
3	1749	1348	1
3	1765	1360	1
3	1770	1364	1
3	1789	1376	1
3	1792	1380	1
3	1802	1388	1
3	1808	1392	1
3	1818	1400	1
3	1828	1408	1
3	1833	1412	1
3	1839	1416	1
3	1842	1420	1
3	1860	1432	1
3	1870	1440	1
3	1887	1452	1
3	1893	1456	1
3	1896	1460	1
3	1915	1472	1
3	1920	1476	1
3	1923	1480	1
3	1927	1484	1
3	1933	1488	1
3	1950	1500	1
3	1980	1520	1
3	1990	1528	1
3	1996	1532	1
3	2005	1540	1
3	2010	1544	1
3	2022	1552	1
3	2032	1560	1
3	2056	1576	1
3	2059	1580	1
3	2064	1584	1
3	2088	1600	1
3	2099	1608	1
3	2111	1616	1
3	2114	1620	1
3	2124	1628	1
3	2130	1632	1
3	2140	1640	1
3	2158	1652	1
3	2167	1660	1
3	2172	1664	1
3	2195	1680	1
3	2199	1684	1
3	2204	1688	1
3	2210	1692	1
3	2220	1700	1
3	2250	1720	1
3	2268	1732	1
3	2278	1740	1
3	2308	1760	1
3	2318	1768	1
3	2323	1772	1
3	2328	1776	1
3	2331	1780	1
3	2335	1784	1
3	2340	1788	1
3	2345	1792	1
3	2351	1796	1
3	2354	1800	1
3	2383	1820	1
3	2388	1824	1
3	2412	1840	1
3	2422	1848	1
3	2427	1852	1
3	2433	1856	1
3	2436	1860	1
3	2447	1868	1
3	2464	1880	1
3	2475	1888	1
3	2486	1896	1
3	2489	1900	1
3	2494	1904	1
3	2517	1920	1
3	2522	1924	1
3	2545	1940	1
3	2549	1944	1
3	2554	1948	1
3	2560	1952	1
3	2569	1960	1
3	2574	1964	1
3	2585	1972	1
3	2590	1976	1
3	2593	1980	1
3	2598	1984	1
3	2621	2000	1
3	2626	2004	1
3	2650	2020	1
3	2675	2036	1
3	2678	2040	1
3	2690	2048	1
3	2695	2052	1
3	2700	2056	1
3	2703	2060	1
3	2707	2064	1
3	2712	2068	1
3	2718	2072	1
3	2728	2080	1
3	2757	2100	1
3	2761	2104	1
3	2766	2108	1
3	2771	2112	1
3	2777	2116	1
3	2780	2120	1
3	2810	2140	1
3	2839	2160	1
3	2843	2164	1
3	2849	2168	1
3	2865	2180	1
3	2870	2184	1
3	2888	2196	1
3	2891	2200	1
3	2895	2204	1
3	2901	2208	1
3	2917	2220	1
3	2922	2224	1
3	2941	2236	1
3	2944	2240	1
3	2954	2248	1
3	2960	2252	1
3	2970	2260	1
3	2980	2268	1
3	2985	2272	1
3	2991	2276	1
3	2994	2280	1
3	3012	2292	1
3	3022	2300	1
3	3039	2312	1
3	3045	2316	1
3	3048	2320	1
3	3058	2328	1
3	3063	2332	1
3	3069	2336	1
3	3072	2340	1
3	3102	2360	1
3	3113	2368	1
3	3125	2376	1
3	3128	2380	1
3	3153	2396	1
3	3156	2400	1
3	3167	2408	1
3	3183	2420	1
3	3187	2424	1
3	3192	2428	1
3	3198	2432	1
3	3208	2440	1
3	3219	2448	1
3	3231	2456	1
3	3234	2460	1
3	3252	2472	1
3	3262	2480	1
3	3286	2496	1
3	3289	2500	1
3	3293	2504	1
3	3298	2508	1
3	3304	2512	1
3	3314	2520	1
3	3344	2540	1
3	3374	2560	1
3	3404	2580	1
3	3415	2588	1
3	3431	2600	1
3	3435	2604	1
3	3441	2608	1
3	3457	2620	1
3	3462	2624	1
3	3486	2640	1
3	3504	2652	1
3	3513	2660	1
3	3517	2664	1
3	3523	2668	1
3	3540	2680	1
3	3551	2688	1
3	3567	2700	1
3	3571	2704	1
3	3577	2708	1
3	3593	2720	1
3	3597	2724	1
3	3603	2728	1
3	3615	2736	1
3	3618	2740	1
3	3629	2748	1
3	3640	2756	1
3	3643	2760	1
3	3648	2764	1
3	3660	2772	1
3	3670	2780	1
3	3694	2796	1
3	3697	2800	1
3	3701	2804	1
3	3706	2808	1
3	3711	2812	1
3	3716	2816	1
3	3719	2820	1
3	3724	2824	1
3	3748	2840	1
3	3777	2860	1
3	3782	2864	1
3	3793	2872	1
3	3798	2876	1
3	3801	2880	1
3	3806	2884	1
3	3829	2900	1
3	3834	2904	1
3	3853	2916	1
3	3856	2920	1
3	3868	2928	1
3	3873	2932	1
3	3878	2936	1
3	3881	2940	1
3	3885	2944	1
3	3890	2948	1
3	3896	2952	1
3	3906	2960	1
3	3916	2968	1
3	3921	2972	1
3	3927	2976	1
3	3930	2980	1
3	3940	2988	1
3	3945	2992	1
3	3950	2996	1
3	3953	3000	1
3	3957	3004	1
3	3962	3008	1
3	3968	3012	1
3	3978	3020	1
3	4002	3036	1
3	4005	3040	1
3	4010	3044	1
3	4033	3060	1
3	4037	3064	1
3	4043	3068	1
3	4055	3076	1
3	4058	3080	1
3	4076	3092	1
3	4086	3100	1
3	4097	3108	1
3	4108	3116	1
3	4111	3120	1
3	4116	3124	1
3	4134	3136	1
3	4137	3140	1
3	4142	3144	1
3	4161	3156	1
3	4164	3160	1
3	4175	3168	1
3	4187	3176	1
3	4190	3180	1
3	4201	3188	1
3	4213	3196	1
3	4216	3200	1
3	4226	3208	1
3	4232	3212	1
3	4241	3220	1
3	4245	3224	1
3	4250	3228	1
3	4256	3232	1
3	4265	3240	1
3	4269	3244	1
3	4275	3248	1
3	4292	3260	1
3	4322	3280	1
3	4333	3288	1
3	4350	3300	1
3	4374	3316	1
3	4377	3320	1
3	4382	3324	1
3	4394	3332	1
3	4403	3340	1
3	4408	3344	1
3	4427	3356	1
3	4430	3360	1
3	4440	3368	1
3	4446	3372	1
3	4456	3380	1
3	4466	3388	1
3	4472	3392	1
3	4482	3400	1
3	4499	3412	1
3	4505	3416	1
3	4508	3420	1
3	4533	3436	1
3	4536	3440	1
3	4547	3448	1
3	4563	3460	1
3	4568	3464	1
3	4580	3472	1
3	4589	3480	1
3	4594	3484	1
3	4613	3496	1
3	4616	3500	1
3	4627	3508	1
3	4644	3520	1
3	4655	3528	1
3	4667	3536	1
3	4670	3540	1
3	4681	3548	1
3	4698	3560	1
3	4715	3572	1
3	4721	3576	1
3	4724	3580	1
3	4735	3588	1
3	4752	3600	1
4	26	24	1
4	31	28	1
4	37	32	1
4	47	40	1
4	59	48	1
4	64	52	1
4	69	56	1
4	72	60	1
4	76	64	1
4	82	68	1
4	99	80	1
4	110	88	1
4	118	92	1
4	123	96	1
4	126	100	1
4	130	104	1
4	135	108	1
4	140	112	1
4	146	116	1
4	149	120	1
4	155	124	1
4	179	140	1
4	190	148	1
4	198	152	1
4	203	156	1
4	206	160	1
4	210	164	1
4	216	168	1
4	222	172	1
4	228	176	1
4	231	180	1
4	238	184	1
4	243	188	1
4	248	192	1
4	254	196	1
4	257	200	1
4	262	204	1
4	268	208	1
4	274	212	1
4	279	216	1
4	282	220	1
4	287	224	1
4	312	240	1
4	316	244	1
4	321	248	1
4	326	252	1
4	331	256	1
4	334	260	1
4	338	264	1
4	343	268	1
4	349	272	1
4	359	280	1
4	385	296	1
4	388	300	1
4	392	304	1
4	397	308	1
4	402	312	1
4	407	316	1
4	410	320	1
4	416	324	1
4	421	328	1
4	426	332	1
4	431	336	1
4	434	340	1
4	438	344	1
4	443	348	1
4	449	352	1
4	455	356	1
4	458	360	1
4	463	364	1
4	470	368	1
4	477	372	1
4	488	380	1
4	492	384	1
4	497	388	1
4	502	392	1
4	508	396	1
4	511	400	1
4	523	408	1
4	528	412	1
4	533	416	1
4	536	420	1
4	541	424	1
4	553	432	1
4	559	436	1
4	562	440	1
4	566	444	1
4	572	448	1
4	580	452	1
4	585	456	1
4	588	460	1
4	592	464	1
4	597	468	1
4	603	472	1
4	613	480	1
4	623	488	1
4	629	492	1
4	640	500	1
4	644	504	1
4	649	508	1
4	654	512	1
4	659	516	1
4	662	520	1
4	666	524	1
4	672	528	1
4	689	540	1
4	708	552	1
4	713	556	1
4	716	560	1
4	721	564	1
4	739	576	1
4	742	580	1
4	747	584	1
4	759	592	1
4	769	600	1
4	798	620	1
4	803	624	1
4	816	632	1
4	821	636	1
4	824	640	1
4	828	644	1
4	833	648	1
4	838	652	1
4	843	656	1
4	846	660	1
4	851	664	1
4	875	680	1
4	886	688	1
4	903	700	1
4	933	720	1
4	943	728	1
4	948	732	1
4	954	736	1
4	957	740	1
4	968	748	1
4	985	760	1
4	1015	780	1
4	1026	788	1
4	1043	800	1
4	1054	808	1
4	1071	820	1
4	1084	828	1
4	1097	836	1
4	1100	840	1
4	1104	844	1
4	1109	848	1
4	1114	852	1
4	1119	856	1
4	1122	860	1
4	1126	864	1
4	1132	868	1
4	1140	872	1
4	1145	876	1
4	1148	880	1
4	1152	884	1
4	1157	888	1
4	1163	892	1
4	1169	896	1
4	1172	900	1
4	1177	904	1
4	1183	908	1
4	1189	912	1
4	1197	916	1
4	1200	920	1
4	1204	924	1
4	1209	928	1
4	1214	932	1
4	1220	936	1
4	1223	940	1
4	1229	944	1
4	1235	948	1
4	1241	952	1
4	1247	956	1
4	1250	960	1
4	1255	964	1
4	1262	968	1
4	1268	972	1
4	1273	976	1
4	1276	980	1
4	1280	984	1
4	1285	988	1
4	1292	992	1
4	1297	996	1
4	1300	1000	1
4	1304	1004	1
4	1309	1008	1
4	1314	1012	1
4	1319	1016	1
4	1322	1020	1
4	1327	1024	1
4	1334	1028	1
4	1352	1040	1
4	1356	1044	1
4	1361	1048	1
4	1366	1052	1
4	1371	1056	1
4	1374	1060	1
4	1378	1064	1
4	1384	1068	1
4	1392	1072	1
4	1397	1076	1
4	1400	1080	1
4	1404	1084	1
4	1409	1088	1
4	1414	1092	1
4	1419	1096	1
4	1422	1100	1
4	1427	1104	1
4	1435	1108	1
4	1440	1112	1
4	1445	1116	1
4	1448	1120	1
4	1452	1124	1
4	1457	1128	1
4	1462	1132	1
4	1468	1136	1
4	1471	1140	1
4	1477	1144	1
4	1483	1148	1
4	1489	1152	1
4	1495	1156	1
4	1498	1160	1
4	1503	1164	1
4	1510	1168	1
4	1517	1172	1
4	1523	1176	1
4	1526	1180	1
4	1531	1184	1
4	1538	1188	1
4	1544	1192	1
4	1550	1196	1
4	1553	1200	1
4	1559	1204	1
4	1567	1208	1
4	1572	1212	1
4	1577	1216	1
4	1580	1220	1
4	1584	1224	1
4	1589	1228	1
4	1595	1232	1
4	1602	1236	1
4	1605	1240	1
4	1611	1244	1
4	1618	1248	1
4	1624	1252	1
4	1629	1256	1
4	1632	1260	1
4	1637	1264	1
4	1644	1268	1
4	1651	1272	1
4	1658	1276	1
4	1661	1280	1
4	1666	1284	1
4	1671	1288	1
4	1677	1292	1
4	1684	1296	1
4	1687	1300	1
4	1692	1304	1
4	1698	1308	1
4	1705	1312	1
4	1711	1316	1
4	1714	1320	1
4	1719	1324	1
4	1725	1328	1
4	1732	1332	1
4	1737	1336	1
4	1740	1340	1
4	1744	1344	1
4	1750	1348	1
4	1757	1352	1
4	1763	1356	1
4	1766	1360	1
4	1771	1364	1
4	1778	1368	1
4	1784	1372	1
4	1790	1376	1
4	1793	1380	1
4	1798	1384	1
4	1803	1388	1
4	1809	1392	1
4	1816	1396	1
4	1819	1400	1
4	1824	1404	1
4	1829	1408	1
4	1834	1412	1
4	1840	1416	1
4	1843	1420	1
4	1849	1424	1
4	1855	1428	1
4	1861	1432	1
4	1868	1436	1
4	1871	1440	1
4	1877	1444	1
4	1883	1448	1
4	1888	1452	1
4	1894	1456	1
4	1897	1460	1
4	1903	1464	1
4	1911	1468	1
4	1916	1472	1
4	1921	1476	1
4	1924	1480	1
4	1928	1484	1
4	1934	1488	1
4	1941	1492	1
4	1948	1496	1
4	1951	1500	1
4	1957	1504	1
4	1964	1508	1
4	1971	1512	1
4	1978	1516	1
4	1981	1520	1
4	1986	1524	1
4	1991	1528	1
4	1997	1532	1
4	2003	1536	1
4	2006	1540	1
4	2011	1544	1
4	2017	1548	1
4	2023	1552	1
4	2030	1556	1
4	2033	1560	1
4	2039	1564	1
4	2046	1568	1
4	2052	1572	1
4	2057	1576	1
4	2060	1580	1
4	2065	1584	1
4	2072	1588	1
4	2079	1592	1
4	2086	1596	1
4	2089	1600	1
4	2094	1604	1
4	2100	1608	1
4	2106	1612	1
4	2112	1616	1
4	2115	1620	1
4	2120	1624	1
4	2125	1628	1
4	2131	1632	1
4	2138	1636	1
4	2141	1640	1
4	2147	1644	1
4	2153	1648	1
4	2159	1652	1
4	2165	1656	1
4	2168	1660	1
4	2173	1664	1
4	2180	1668	1
4	2187	1672	1
4	2193	1676	1
4	2196	1680	1
4	2200	1684	1
4	2205	1688	1
4	2211	1692	1
4	2218	1696	1
4	2221	1700	1
4	2227	1704	1
4	2234	1708	1
4	2241	1712	1
4	2248	1716	1
4	2251	1720	1
4	2257	1724	1
4	2263	1728	1
4	2269	1732	1
4	2276	1736	1
4	2279	1740	1
4	2285	1744	1
4	2292	1748	1
4	2299	1752	1
4	2306	1756	1
4	2309	1760	1
4	2314	1764	1
4	2319	1768	1
4	2324	1772	1
4	2329	1776	1
4	2332	1780	1
4	2336	1784	1
4	2341	1788	1
4	2346	1792	1
4	2352	1796	1
4	2355	1800	1
4	2361	1804	1
4	2368	1808	1
4	2375	1812	1
4	2381	1816	1
4	2384	1820	1
4	2389	1824	1
4	2396	1828	1
4	2403	1832	1
4	2410	1836	1
4	2413	1840	1
4	2418	1844	1
4	2423	1848	1
4	2428	1852	1
4	2434	1856	1
4	2437	1860	1
4	2442	1864	1
4	2448	1868	1
4	2455	1872	1
4	2462	1876	1
4	2465	1880	1
4	2470	1884	1
4	2476	1888	1
4	2482	1892	1
4	2487	1896	1
4	2490	1900	1
4	2495	1904	1
4	2502	1908	1
4	2509	1912	1
4	2515	1916	1
4	2518	1920	1
4	2523	1924	1
4	2530	1928	1
4	2537	1932	1
4	2543	1936	1
4	2546	1940	1
4	2550	1944	1
4	2555	1948	1
4	2561	1952	1
4	2567	1956	1
4	2570	1960	1
4	2575	1964	1
4	2581	1968	1
4	2586	1972	1
4	2591	1976	1
4	2594	1980	1
4	2599	1984	1
4	2606	1988	1
4	2613	1992	1
4	2619	1996	1
4	2622	2000	1
4	2627	2004	1
4	2634	2008	1
4	2641	2012	1
4	2648	2016	1
4	2651	2020	1
4	2657	2024	1
4	2664	2028	1
4	2670	2032	1
4	2676	2036	1
4	2679	2040	1
4	2686	2044	1
4	2691	2048	1
4	2696	2052	1
4	2701	2056	1
4	2704	2060	1
4	2708	2064	1
4	2713	2068	1
4	2719	2072	1
4	2726	2076	1
4	2729	2080	1
4	2735	2084	1
4	2742	2088	1
4	2749	2092	1
4	2755	2096	1
4	2758	2100	1
4	2762	2104	1
4	2767	2108	1
4	2772	2112	1
4	2778	2116	1
4	2781	2120	1
4	2787	2124	1
4	2794	2128	1
4	2801	2132	1
4	2808	2136	1
4	2811	2140	1
4	2817	2144	1
4	2824	2148	1
4	2831	2152	1
4	2837	2156	1
4	2840	2160	1
4	2844	2164	1
4	2850	2168	1
4	2857	2172	1
4	2863	2176	1
4	2866	2180	1
4	2871	2184	1
4	2878	2188	1
4	2884	2192	1
4	2889	2196	1
4	2892	2200	1
4	2896	2204	1
4	2902	2208	1
4	2909	2212	1
4	2915	2216	1
4	2918	2220	1
4	2923	2224	1
4	2930	2228	1
4	2936	2232	1
4	2942	2236	1
4	2945	2240	1
4	2950	2244	1
4	2955	2248	1
4	2961	2252	1
4	2968	2256	1
4	2971	2260	1
4	2976	2264	1
4	2981	2268	1
4	2986	2272	1
4	2992	2276	1
4	2995	2280	1
4	3001	2284	1
4	3007	2288	1
4	3013	2292	1
4	3020	2296	1
4	3023	2300	1
4	3029	2304	1
4	3035	2308	1
4	3040	2312	1
4	3046	2316	1
4	3049	2320	1
4	3054	2324	1
4	3059	2328	1
4	3064	2332	1
4	3070	2336	1
4	3073	2340	1
4	3079	2344	1
4	3086	2348	1
4	3093	2352	1
4	3100	2356	1
4	3103	2360	1
4	3108	2364	1
4	3114	2368	1
4	3120	2372	1
4	3126	2376	1
4	3129	2380	1
4	3135	2384	1
4	3142	2388	1
4	3148	2392	1
4	3154	2396	1
4	3157	2400	1
4	3162	2404	1
4	3168	2408	1
4	3175	2412	1
4	3181	2416	1
4	3184	2420	1
4	3188	2424	1
4	3193	2428	1
4	3199	2432	1
4	3206	2436	1
4	3209	2440	1
4	3214	2444	1
4	3220	2448	1
4	3226	2452	1
4	3232	2456	1
4	3235	2460	1
4	3241	2464	1
4	3247	2468	1
4	3253	2472	1
4	3260	2476	1
4	3263	2480	1
4	3269	2484	1
4	3276	2488	1
4	3282	2492	1
4	3287	2496	1
4	3290	2500	1
4	3294	2504	1
4	3299	2508	1
4	3305	2512	1
4	3312	2516	1
4	3315	2520	1
4	3321	2524	1
4	3328	2528	1
4	3335	2532	1
4	3342	2536	1
4	3345	2540	1
4	3351	2544	1
4	3358	2548	1
4	3365	2552	1
4	3372	2556	1
4	3375	2560	1
4	3381	2564	1
4	3388	2568	1
4	3395	2572	1
4	3402	2576	1
4	3405	2580	1
4	3410	2584	1
4	3416	2588	1
4	3423	2592	1
4	3429	2596	1
4	3432	2600	1
4	3436	2604	1
4	3442	2608	1
4	3449	2612	1
4	3455	2616	1
4	3458	2620	1
4	3463	2624	1
4	3470	2628	1
4	3477	2632	1
4	3484	2636	1
4	3487	2640	1
4	3493	2644	1
4	3499	2648	1
4	3505	2652	1
4	3511	2656	1
4	3514	2660	1
4	3518	2664	1
4	3524	2668	1
4	3531	2672	1
4	3538	2676	1
4	3541	2680	1
4	3546	2684	1
4	3552	2688	1
4	3559	2692	1
4	3565	2696	1
4	3568	2700	1
4	3572	2704	1
4	3578	2708	1
4	3585	2712	1
4	3591	2716	1
4	3594	2720	1
4	3598	2724	1
4	3604	2728	1
4	3610	2732	1
4	3616	2736	1
4	3619	2740	1
4	3624	2744	1
4	3630	2748	1
4	3636	2752	1
4	3641	2756	1
4	3644	2760	1
4	3649	2764	1
4	3655	2768	1
4	3661	2772	1
4	3668	2776	1
4	3671	2780	1
4	3677	2784	1
4	3684	2788	1
4	3690	2792	1
4	3695	2796	1
4	3698	2800	1
4	3702	2804	1
4	3707	2808	1
4	3712	2812	1
4	3717	2816	1
4	3720	2820	1
4	3725	2824	1
4	3732	2828	1
4	3739	2832	1
4	3746	2836	1
4	3749	2840	1
4	3755	2844	1
4	3762	2848	1
4	3769	2852	1
4	3775	2856	1
4	3778	2860	1
4	3783	2864	1
4	3789	2868	1
4	3794	2872	1
4	3799	2876	1
4	3802	2880	1
4	3807	2884	1
4	3814	2888	1
4	3821	2892	1
4	3827	2896	1
4	3830	2900	1
4	3835	2904	1
4	3842	2908	1
4	3848	2912	1
4	3854	2916	1
4	3857	2920	1
4	3864	2924	1
4	3869	2928	1
4	3874	2932	1
4	3879	2936	1
4	3882	2940	1
4	3886	2944	1
4	3891	2948	1
4	3897	2952	1
4	3904	2956	1
4	3907	2960	1
4	3912	2964	1
4	3917	2968	1
4	3922	2972	1
4	3928	2976	1
4	3931	2980	1
4	3936	2984	1
4	3941	2988	1
4	3946	2992	1
4	3951	2996	1
4	3954	3000	1
4	3958	3004	1
4	3963	3008	1
4	3969	3012	1
4	3976	3016	1
4	3979	3020	1
4	3985	3024	1
4	3992	3028	1
4	3998	3032	1
4	4003	3036	1
4	4006	3040	1
4	4011	3044	1
4	4018	3048	1
4	4025	3052	1
4	4031	3056	1
4	4034	3060	1
4	4038	3064	1
4	4044	3068	1
4	4050	3072	1
4	4056	3076	1
4	4059	3080	1
4	4065	3084	1
4	4071	3088	1
4	4077	3092	1
4	4084	3096	1
4	4087	3100	1
4	4092	3104	1
4	4098	3108	1
4	4104	3112	1
4	4109	3116	1
4	4112	3120	1
4	4117	3124	1
4	4124	3128	1
4	4130	3132	1
4	4135	3136	1
4	4138	3140	1
4	4143	3144	1
4	4150	3148	1
4	4156	3152	1
4	4162	3156	1
4	4165	3160	1
4	4170	3164	1
4	4176	3168	1
4	4182	3172	1
4	4188	3176	1
4	4191	3180	1
4	4196	3184	1
4	4202	3188	1
4	4208	3192	1
4	4214	3196	1
4	4217	3200	1
4	4222	3204	1
4	4227	3208	1
4	4233	3212	1
4	4239	3216	1
4	4242	3220	1
4	4246	3224	1
4	4251	3228	1
4	4257	3232	1
4	4263	3236	1
4	4266	3240	1
4	4270	3244	1
4	4276	3248	1
4	4283	3252	1
4	4290	3256	1
4	4293	3260	1
4	4299	3264	1
4	4306	3268	1
4	4313	3272	1
4	4320	3276	1
4	4323	3280	1
4	4328	3284	1
4	4334	3288	1
4	4341	3292	1
4	4348	3296	1
4	4351	3300	1
4	4357	3304	1
4	4364	3308	1
4	4370	3312	1
4	4375	3316	1
4	4378	3320	1
4	4383	3324	1
4	4389	3328	1
4	4395	3332	1
4	4401	3336	1
4	4404	3340	1
4	4409	3344	1
4	4416	3348	1
4	4422	3352	1
4	4428	3356	1
4	4431	3360	1
4	4436	3364	1
4	4441	3368	1
4	4447	3372	1
4	4454	3376	1
4	4457	3380	1
4	4462	3384	1
4	4467	3388	1
4	4473	3392	1
4	4480	3396	1
4	4483	3400	1
4	4489	3404	1
4	4495	3408	1
4	4500	3412	1
4	4506	3416	1
4	4509	3420	1
4	4515	3424	1
4	4522	3428	1
4	4528	3432	1
4	4534	3436	1
4	4537	3440	1
4	4542	3444	1
4	4548	3448	1
4	4555	3452	1
4	4561	3456	1
4	4564	3460	1
4	4569	3464	1
4	4575	3468	1
4	4581	3472	1
4	4587	3476	1
4	4590	3480	1
4	4595	3484	1
4	4602	3488	1
4	4608	3492	1
4	4614	3496	1
4	4617	3500	1
4	4622	3504	1
4	4628	3508	1
4	4635	3512	1
4	4642	3516	1
4	4645	3520	1
4	4650	3524	1
4	4656	3528	1
4	4662	3532	1
4	4668	3536	1
4	4671	3540	1
4	4676	3544	1
4	4682	3548	1
4	4689	3552	1
4	4696	3556	1
4	4699	3560	1
4	4705	3564	1
4	4711	3568	1
4	4716	3572	1
4	4722	3576	1
4	4725	3580	1
4	4730	3584	1
4	4736	3588	1
4	4743	3592	1
4	4750	3596	1
4	4753	3600	1
5	40	35	1
5	49	40	1
5	85	70	1
5	92	75	1
5	101	80	1
5	158	125	1
5	165	130	1
5	172	135	1
5	181	140	1
5	290	225	1
5	297	230	1
5	304	235	1
5	352	275	1
5	361	280	1
5	368	285	1
5	375	290	1
5	480	375	1
5	513	400	1
5	544	425	1
5	606	475	1
5	615	480	1
5	632	495	1
5	675	530	1
5	682	535	1
5	691	540	1
5	698	545	1
5	724	565	1
5	731	570	1
5	750	585	1
5	762	595	1
5	771	600	1
5	778	605	1
5	785	610	1
5	792	615	1
5	806	625	1
5	854	665	1
5	861	670	1
5	868	675	1
5	877	680	1
5	889	690	1
5	896	695	1
5	905	700	1
5	912	705	1
5	919	710	1
5	926	715	1
5	935	720	1
5	959	740	1
5	971	750	1
5	978	755	1
5	987	760	1
5	994	765	1
5	1001	770	1
5	1008	775	1
5	1017	780	1
5	1029	790	1
5	1036	795	1
5	1045	800	1
5	1057	810	1
5	1064	815	1
5	1073	820	1
5	1087	830	1
5	1337	1030	1
5	1344	1035	1
6	40	35	31
6	49	40	32
6	85	70	58
6	92	75	59
6	101	80	60
6	158	125	89
6	165	130	86
6	172	135	63
6	181	140	64
6	290	225	141
6	297	230	102
6	304	235	103
6	352	275	139
6	361	280	136
6	368	285	57
6	375	290	58
6	480	375	139
6	513	400	124
6	544	425	141
6	606	475	187
6	615	480	188
6	632	495	119
6	675	530	126
6	682	535	107
6	691	540	64
6	698	545	61
6	724	565	69
6	731	570	38
6	750	585	49
6	762	595	51
6	771	600	52
6	778	605	37
6	785	610	38
6	792	615	27
6	806	625	29
6	854	665	61
6	861	670	62
6	868	675	63
6	877	680	64
6	889	690	62
6	896	695	27
6	905	700	28
6	912	705	29
6	919	710	26
6	926	715	23
6	935	720	24
6	959	740	36
6	971	750	42
6	978	755	43
6	987	760	44
6	994	765	41
6	1001	770	26
6	1008	775	23
6	1017	780	24
6	1029	790	26
6	1036	795	27
6	1045	800	28
6	1057	810	34
6	1064	815	31
6	1073	820	28
6	1087	830	34
6	1337	1030	226
6	1344	1035	223
7	40	35	1
7	49	40	1
7	85	70	1
7	92	75	1
7	101	80	1
7	158	125	1
7	165	130	1
7	172	135	1
7	181	140	1
7	290	225	1
7	297	230	1
7	304	235	1
7	352	275	1
7	361	280	1
7	368	285	1
7	375	290	1
7	480	375	1
7	513	400	1
7	544	425	1
7	606	475	1
7	615	480	1
7	632	495	1
7	675	530	1
7	682	535	1
7	691	540	1
7	698	545	1
7	724	565	1
7	731	570	1
7	750	585	1
7	762	595	1
7	771	600	1
7	778	605	1
7	785	610	1
7	792	615	1
7	806	625	1
7	854	665	1
7	861	670	1
7	868	675	1
7	877	680	1
7	889	690	1
7	896	695	1
7	905	700	1
7	912	705	1
7	919	710	1
7	926	715	1
7	935	720	1
7	959	740	1
7	971	750	1
7	978	755	1
7	987	760	1
7	994	765	1
7	1001	770	1
7	1008	775	1
7	1017	780	1
7	1029	790	1
7	1036	795	1
7	1045	800	1
7	1057	810	1
7	1064	815	1
7	1073	820	1
7	1087	830	1
7	1337	1030	1
7	1344	1035	1
8	113	90	1
8	151	120	1
8	193	150	1
8	219	170	1
8	233	180	1
8	259	200	1
8	271	210	1
8	452	355	1
8	466	365	1
8	473	370	1
8	556	435	1
8	575	450	1
8	1080	825	1
8	1135	870	1
8	1166	895	1
8	1180	905	1
8	1192	915	1
8	1225	940	1
8	1232	945	1
8	1244	955	1
8	1258	965	1
8	1265	970	1
8	1330	1025	1
8	1387	1070	1
8	1430	1105	1
8	1473	1140	1
8	1480	1145	1
8	1492	1155	1
8	1506	1165	1
8	1513	1170	1
8	1520	1175	1
8	1534	1185	1
8	1541	1190	1
8	1555	1200	1
8	1562	1205	1
8	1598	1235	1
8	1607	1240	1
8	1614	1245	1
8	1621	1250	1
8	1640	1265	1
8	1647	1270	1
8	1654	1275	1
8	1663	1280	1
8	1680	1295	1
8	1689	1300	1
8	1701	1310	1
8	1708	1315	1
8	1722	1325	1
8	1753	1350	1
8	1760	1355	1
8	1774	1365	1
8	1781	1370	1
8	1795	1380	1
8	1812	1395	1
8	1821	1400	1
8	1845	1420	1
8	1852	1425	1
8	1864	1435	1
8	1873	1440	1
8	1880	1445	1
8	1899	1460	1
8	1906	1465	1
8	1937	1490	1
8	1944	1495	1
8	1953	1500	1
8	1960	1505	1
8	1967	1510	1
8	1974	1515	1
8	1983	1520	1
8	2000	1535	1
8	2014	1545	1
8	2026	1555	1
8	2035	1560	1
8	2042	1565	1
8	2049	1570	1
8	2068	1585	1
8	2075	1590	1
8	2082	1595	1
8	2091	1600	1
8	2103	1610	1
8	2117	1620	1
8	2134	1635	1
8	2143	1640	1
8	2150	1645	1
8	2162	1655	1
8	2176	1665	1
8	2183	1670	1
8	2190	1675	1
8	2214	1695	1
8	2223	1700	1
8	2230	1705	1
8	2237	1710	1
8	2244	1715	1
8	2253	1720	1
8	2260	1725	1
8	2272	1735	1
8	2281	1740	1
8	2288	1745	1
8	2295	1750	1
8	2302	1755	1
8	2311	1760	1
8	2357	1800	1
8	2364	1805	1
8	2371	1810	1
8	2378	1815	1
8	2392	1825	1
8	2399	1830	1
8	2406	1835	1
8	2415	1840	1
8	2439	1860	1
8	2451	1870	1
8	2458	1875	1
8	2467	1880	1
8	2479	1890	1
8	2498	1905	1
8	2505	1910	1
8	2512	1915	1
8	2526	1925	1
8	2533	1930	1
8	2540	1935	1
8	2564	1955	1
8	2578	1965	1
8	2602	1985	1
8	2609	1990	1
8	2616	1995	1
8	2630	2005	1
8	2637	2010	1
8	2644	2015	1
8	2653	2020	1
8	2660	2025	1
8	2667	2030	1
8	2681	2040	1
8	2722	2075	1
8	2731	2080	1
8	2738	2085	1
8	2745	2090	1
8	2752	2095	1
8	2783	2120	1
8	2790	2125	1
8	2797	2130	1
8	2804	2135	1
8	2813	2140	1
8	2820	2145	1
8	2827	2150	1
8	2834	2155	1
8	2853	2170	1
8	2860	2175	1
8	2874	2185	1
8	2881	2190	1
8	2905	2210	1
8	2912	2215	1
8	2926	2225	1
8	2933	2230	1
8	2947	2240	1
8	2964	2255	1
8	2973	2260	1
8	2997	2280	1
8	3004	2285	1
8	3016	2295	1
8	3025	2300	1
8	3032	2305	1
8	3051	2320	1
8	3075	2340	1
8	3082	2345	1
8	3089	2350	1
8	3096	2355	1
8	3105	2360	1
8	3117	2370	1
8	3131	2380	1
8	3138	2385	1
8	3145	2390	1
8	3159	2400	1
8	3171	2410	1
8	3178	2415	1
8	3202	2435	1
8	3211	2440	1
8	3223	2450	1
8	3237	2460	1
8	3244	2465	1
8	3256	2475	1
8	3265	2480	1
8	3272	2485	1
8	3279	2490	1
8	3308	2515	1
8	3317	2520	1
8	3324	2525	1
8	3331	2530	1
8	3338	2535	1
8	3347	2540	1
8	3354	2545	1
8	3361	2550	1
8	3368	2555	1
8	3377	2560	1
8	3384	2565	1
8	3391	2570	1
8	3398	2575	1
8	3407	2580	1
8	3419	2590	1
8	3426	2595	1
8	3445	2610	1
8	3452	2615	1
8	3466	2625	1
8	3473	2630	1
8	3480	2635	1
8	3489	2640	1
8	3496	2645	1
8	3508	2655	1
8	3527	2670	1
8	3534	2675	1
8	3543	2680	1
8	3555	2690	1
8	3562	2695	1
8	3581	2710	1
8	3588	2715	1
8	3607	2730	1
8	3621	2740	1
8	3633	2750	1
8	3652	2765	1
8	3664	2775	1
8	3673	2780	1
8	3680	2785	1
8	3687	2790	1
8	3728	2825	1
8	3735	2830	1
8	3742	2835	1
8	3751	2840	1
8	3758	2845	1
8	3765	2850	1
8	3772	2855	1
8	3786	2865	1
8	3810	2885	1
8	3817	2890	1
8	3824	2895	1
8	3838	2905	1
8	3845	2910	1
8	3859	2920	1
8	3900	2955	1
8	3909	2960	1
8	3933	2980	1
8	3972	3015	1
8	3981	3020	1
8	3988	3025	1
8	3995	3030	1
8	4014	3045	1
8	4021	3050	1
8	4028	3055	1
8	4047	3070	1
8	4061	3080	1
8	4068	3085	1
8	4080	3095	1
8	4089	3100	1
8	4101	3110	1
8	4120	3125	1
8	4127	3130	1
8	4146	3145	1
8	4153	3150	1
8	4167	3160	1
8	4179	3170	1
8	4193	3180	1
8	4205	3190	1
8	4219	3200	1
8	4236	3215	1
8	4260	3235	1
8	4279	3250	1
8	4286	3255	1
8	4295	3260	1
8	4302	3265	1
8	4309	3270	1
8	4316	3275	1
8	4325	3280	1
8	4337	3290	1
8	4344	3295	1
8	4353	3300	1
8	4360	3305	1
8	4367	3310	1
8	4386	3325	1
8	4398	3335	1
8	4412	3345	1
8	4419	3350	1
8	4433	3360	1
8	4450	3375	1
8	4459	3380	1
8	4476	3395	1
8	4485	3400	1
8	4492	3405	1
8	4511	3420	1
8	4518	3425	1
8	4525	3430	1
8	4539	3440	1
8	4551	3450	1
8	4558	3455	1
8	4572	3465	1
8	4584	3475	1
8	4598	3485	1
8	4605	3490	1
8	4619	3500	1
8	4631	3510	1
8	4638	3515	1
8	4647	3520	1
8	4659	3530	1
8	4673	3540	1
8	4685	3550	1
8	4692	3555	1
8	4701	3560	1
8	4708	3565	1
8	4727	3580	1
8	4739	3590	1
8	4746	3595	1
8	4755	3600	1
9	113	90	86
9	151	120	112
9	193	150	138
9	219	170	154
9	233	180	160
9	259	200	108
9	271	210	86
9	452	355	203
9	466	365	193
9	473	370	186
9	556	435	231
9	575	450	238
9	1080	825	469
9	1135	870	502
9	1166	895	523
9	1180	905	469
9	1192	915	463
9	1225	940	112
9	1232	945	73
9	1244	955	59
9	1258	965	57
9	1265	970	54
9	1330	1025	81
9	1387	1070	122
9	1430	1105	149
9	1473	1140	172
9	1480	1145	173
9	1492	1155	127
9	1506	1165	93
9	1513	1170	62
9	1520	1175	31
9	1534	1185	37
9	1541	1190	34
9	1555	1200	32
9	1562	1205	33
9	1598	1235	59
9	1607	1240	52
9	1614	1245	53
9	1621	1250	46
9	1640	1265	57
9	1647	1270	34
9	1654	1275	31
9	1663	1280	32
9	1680	1295	43
9	1689	1300	32
9	1701	1310	38
9	1708	1315	39
9	1722	1325	41
9	1753	1350	54
9	1760	1355	51
9	1774	1365	53
9	1781	1370	54
9	1795	1380	52
9	1812	1395	43
9	1821	1400	44
9	1845	1420	52
9	1852	1425	53
9	1864	1435	51
9	1873	1440	44
9	1880	1445	41
9	1899	1460	36
9	1906	1465	37
9	1937	1490	54
9	1944	1495	51
9	1953	1500	52
9	1960	1505	41
9	1967	1510	42
9	1974	1515	23
9	1983	1520	24
9	2000	1535	31
9	2014	1545	37
9	2026	1555	43
9	2035	1560	44
9	2042	1565	41
9	2049	1570	34
9	2068	1585	37
9	2075	1590	34
9	2082	1595	31
9	2091	1600	32
9	2103	1610	38
9	2117	1620	32
9	2134	1635	43
9	2143	1640	44
9	2150	1645	41
9	2162	1655	43
9	2176	1665	41
9	2183	1670	34
9	2190	1675	31
9	2214	1695	47
9	2223	1700	44
9	2230	1705	37
9	2237	1710	38
9	2244	1715	39
9	2253	1720	24
9	2260	1725	21
9	2272	1735	27
9	2281	1740	28
9	2288	1745	29
9	2295	1750	26
9	2302	1755	27
9	2311	1760	24
9	2357	1800	56
9	2364	1805	57
9	2371	1810	58
9	2378	1815	59
9	2392	1825	61
9	2399	1830	26
9	2406	1835	27
9	2415	1840	28
9	2439	1860	44
9	2451	1870	42
9	2458	1875	43
9	2467	1880	44
9	2479	1890	46
9	2498	1905	41
9	2505	1910	38
9	2512	1915	39
9	2526	1925	41
9	2533	1930	38
9	2540	1935	27
9	2564	1955	43
9	2578	1965	49
9	2602	1985	57
9	2609	1990	58
9	2616	1995	59
9	2630	2005	49
9	2637	2010	42
9	2644	2015	27
9	2653	2020	28
9	2660	2025	29
9	2667	2030	22
9	2681	2040	28
9	2722	2075	59
9	2731	2080	56
9	2738	2085	57
9	2745	2090	58
9	2752	2095	51
9	2783	2120	44
9	2790	2125	41
9	2797	2130	42
9	2804	2135	43
9	2813	2140	44
9	2820	2145	21
9	2827	2150	22
9	2834	2155	23
9	2853	2170	34
9	2860	2175	31
9	2874	2185	37
9	2881	2190	38
9	2905	2210	54
9	2912	2215	43
9	2926	2225	49
9	2933	2230	42
9	2947	2240	48
9	2964	2255	43
9	2973	2260	44
9	2997	2280	52
9	3004	2285	53
9	3016	2295	51
9	3025	2300	44
9	3032	2305	41
9	3051	2320	36
9	3075	2340	52
9	3082	2345	49
9	3089	2350	46
9	3096	2355	47
9	3105	2360	36
9	3117	2370	26
9	3131	2380	32
9	3138	2385	33
9	3145	2390	34
9	3159	2400	36
9	3171	2410	38
9	3178	2415	31
9	3202	2435	47
9	3211	2440	48
9	3223	2450	46
9	3237	2460	48
9	3244	2465	49
9	3256	2475	39
9	3265	2480	36
9	3272	2485	33
9	3279	2490	26
9	3308	2515	47
9	3317	2520	44
9	3324	2525	41
9	3331	2530	42
9	3338	2535	43
9	3347	2540	24
9	3354	2545	21
9	3361	2550	22
9	3368	2555	23
9	3377	2560	24
9	3384	2565	21
9	3391	2570	22
9	3398	2575	23
9	3407	2580	24
9	3419	2590	26
9	3426	2595	27
9	3445	2610	38
9	3452	2615	39
9	3466	2625	41
9	3473	2630	38
9	3480	2635	39
9	3489	2640	28
9	3496	2645	29
9	3508	2655	27
9	3527	2670	38
9	3534	2675	39
9	3543	2680	36
9	3555	2690	42
9	3562	2695	39
9	3581	2710	38
9	3588	2715	39
9	3607	2730	46
9	3621	2740	48
9	3633	2750	54
9	3652	2765	53
9	3664	2775	59
9	3673	2780	48
9	3680	2785	41
9	3687	2790	38
9	3728	2825	57
9	3735	2830	54
9	3742	2835	51
9	3751	2840	52
9	3758	2845	53
9	3765	2850	22
9	3772	2855	23
9	3786	2865	29
9	3810	2885	41
9	3817	2890	42
9	3824	2895	43
9	3838	2905	49
9	3845	2910	42
9	3859	2920	32
9	3900	2955	63
9	3909	2960	64
9	3933	2980	72
9	3972	3015	103
9	3981	3020	96
9	3988	3025	69
9	3995	3030	66
9	4014	3045	61
9	4021	3050	34
9	4028	3055	31
9	4047	3070	42
9	4061	3080	48
9	4068	3085	37
9	4080	3095	43
9	4089	3100	44
9	4101	3110	38
9	4120	3125	41
9	4127	3130	42
9	4146	3145	49
9	4153	3150	46
9	4167	3160	48
9	4179	3170	42
9	4193	3180	48
9	4205	3190	42
9	4219	3200	48
9	4236	3215	51
9	4260	3235	63
9	4279	3250	66
9	4286	3255	63
9	4295	3260	56
9	4302	3265	49
9	4309	3270	34
9	4316	3275	23
9	4325	3280	24
9	4337	3290	26
9	4344	3295	27
9	4353	3300	28
9	4360	3305	29
9	4367	3310	26
9	4386	3325	33
9	4398	3335	39
9	4412	3345	41
9	4419	3350	42
9	4433	3360	48
9	4450	3375	47
9	4459	3380	44
9	4476	3395	47
9	4485	3400	48
9	4492	3405	41
9	4511	3420	44
9	4518	3425	41
9	4525	3430	34
9	4539	3440	36
9	4551	3450	42
9	4558	3455	31
9	4572	3465	37
9	4584	3475	43
9	4598	3485	41
9	4605	3490	38
9	4619	3500	44
9	4631	3510	42
9	4638	3515	39
9	4647	3520	32
9	4659	3530	38
9	4673	3540	36
9	4685	3550	38
9	4692	3555	39
9	4701	3560	36
9	4708	3565	33
9	4727	3580	36
9	4739	3590	38
9	4746	3595	39
9	4755	3600	36
10	113	90	1
10	151	120	1
10	193	150	1
10	219	170	1
10	233	180	1
10	259	200	1
10	271	210	1
10	452	355	1
10	466	365	1
10	473	370	1
10	556	435	1
10	575	450	1
10	1080	825	1
10	1135	870	1
10	1166	895	1
10	1180	905	1
10	1192	915	1
10	1225	940	1
10	1232	945	1
10	1244	955	1
10	1258	965	1
10	1265	970	1
10	1330	1025	1
10	1387	1070	1
10	1430	1105	1
10	1473	1140	1
10	1480	1145	1
10	1492	1155	1
10	1506	1165	1
10	1513	1170	1
10	1520	1175	1
10	1534	1185	1
10	1541	1190	1
10	1555	1200	1
10	1562	1205	1
10	1598	1235	1
10	1607	1240	1
10	1614	1245	1
10	1621	1250	1
10	1640	1265	1
10	1647	1270	1
10	1654	1275	1
10	1663	1280	1
10	1680	1295	1
10	1689	1300	1
10	1701	1310	1
10	1708	1315	1
10	1722	1325	1
10	1753	1350	1
10	1760	1355	1
10	1774	1365	1
10	1781	1370	1
10	1795	1380	1
10	1812	1395	1
10	1821	1400	1
10	1845	1420	1
10	1852	1425	1
10	1864	1435	1
10	1873	1440	1
10	1880	1445	1
10	1899	1460	1
10	1906	1465	1
10	1937	1490	1
10	1944	1495	1
10	1953	1500	1
10	1960	1505	1
10	1967	1510	1
10	1974	1515	1
10	1983	1520	1
10	2000	1535	1
10	2014	1545	1
10	2026	1555	1
10	2035	1560	1
10	2042	1565	1
10	2049	1570	1
10	2068	1585	1
10	2075	1590	1
10	2082	1595	1
10	2091	1600	1
10	2103	1610	1
10	2117	1620	1
10	2134	1635	1
10	2143	1640	1
10	2150	1645	1
10	2162	1655	1
10	2176	1665	1
10	2183	1670	1
10	2190	1675	1
10	2214	1695	1
10	2223	1700	1
10	2230	1705	1
10	2237	1710	1
10	2244	1715	1
10	2253	1720	1
10	2260	1725	1
10	2272	1735	1
10	2281	1740	1
10	2288	1745	1
10	2295	1750	1
10	2302	1755	1
10	2311	1760	1
10	2357	1800	1
10	2364	1805	1
10	2371	1810	1
10	2378	1815	1
10	2392	1825	1
10	2399	1830	1
10	2406	1835	1
10	2415	1840	1
10	2439	1860	1
10	2451	1870	1
10	2458	1875	1
10	2467	1880	1
10	2479	1890	1
10	2498	1905	1
10	2505	1910	1
10	2512	1915	1
10	2526	1925	1
10	2533	1930	1
10	2540	1935	1
10	2564	1955	1
10	2578	1965	1
10	2602	1985	1
10	2609	1990	1
10	2616	1995	1
10	2630	2005	1
10	2637	2010	1
10	2644	2015	1
10	2653	2020	1
10	2660	2025	1
10	2667	2030	1
10	2681	2040	1
10	2722	2075	1
10	2731	2080	1
10	2738	2085	1
10	2745	2090	1
10	2752	2095	1
10	2783	2120	1
10	2790	2125	1
10	2797	2130	1
10	2804	2135	1
10	2813	2140	1
10	2820	2145	1
10	2827	2150	1
10	2834	2155	1
10	2853	2170	1
10	2860	2175	1
10	2874	2185	1
10	2881	2190	1
10	2905	2210	1
10	2912	2215	1
10	2926	2225	1
10	2933	2230	1
10	2947	2240	1
10	2964	2255	1
10	2973	2260	1
10	2997	2280	1
10	3004	2285	1
10	3016	2295	1
10	3025	2300	1
10	3032	2305	1
10	3051	2320	1
10	3075	2340	1
10	3082	2345	1
10	3089	2350	1
10	3096	2355	1
10	3105	2360	1
10	3117	2370	1
10	3131	2380	1
10	3138	2385	1
10	3145	2390	1
10	3159	2400	1
10	3171	2410	1
10	3178	2415	1
10	3202	2435	1
10	3211	2440	1
10	3223	2450	1
10	3237	2460	1
10	3244	2465	1
10	3256	2475	1
10	3265	2480	1
10	3272	2485	1
10	3279	2490	1
10	3308	2515	1
10	3317	2520	1
10	3324	2525	1
10	3331	2530	1
10	3338	2535	1
10	3347	2540	1
10	3354	2545	1
10	3361	2550	1
10	3368	2555	1
10	3377	2560	1
10	3384	2565	1
10	3391	2570	1
10	3398	2575	1
10	3407	2580	1
10	3419	2590	1
10	3426	2595	1
10	3445	2610	1
10	3452	2615	1
10	3466	2625	1
10	3473	2630	1
10	3480	2635	1
10	3489	2640	1
10	3496	2645	1
10	3508	2655	1
10	3527	2670	1
10	3534	2675	1
10	3543	2680	1
10	3555	2690	1
10	3562	2695	1
10	3581	2710	1
10	3588	2715	1
10	3607	2730	1
10	3621	2740	1
10	3633	2750	1
10	3652	2765	1
10	3664	2775	1
10	3673	2780	1
10	3680	2785	1
10	3687	2790	1
10	3728	2825	1
10	3735	2830	1
10	3742	2835	1
10	3751	2840	1
10	3758	2845	1
10	3765	2850	1
10	3772	2855	1
10	3786	2865	1
10	3810	2885	1
10	3817	2890	1
10	3824	2895	1
10	3838	2905	1
10	3845	2910	1
10	3859	2920	1
10	3900	2955	1
10	3909	2960	1
10	3933	2980	1
10	3972	3015	1
10	3981	3020	1
10	3988	3025	1
10	3995	3030	1
10	4014	3045	1
10	4021	3050	1
10	4028	3055	1
10	4047	3070	1
10	4061	3080	1
10	4068	3085	1
10	4080	3095	1
10	4089	3100	1
10	4101	3110	1
10	4120	3125	1
10	4127	3130	1
10	4146	3145	1
10	4153	3150	1
10	4167	3160	1
10	4179	3170	1
10	4193	3180	1
10	4205	3190	1
10	4219	3200	1
10	4236	3215	1
10	4260	3235	1
10	4279	3250	1
10	4286	3255	1
10	4295	3260	1
10	4302	3265	1
10	4309	3270	1
10	4316	3275	1
10	4325	3280	1
10	4337	3290	1
10	4344	3295	1
10	4353	3300	1
10	4360	3305	1
10	4367	3310	1
10	4386	3325	1
10	4398	3335	1
10	4412	3345	1
10	4419	3350	1
10	4433	3360	1
10	4450	3375	1
10	4459	3380	1
10	4476	3395	1
10	4485	3400	1
10	4492	3405	1
10	4511	3420	1
10	4518	3425	1
10	4525	3430	1
10	4539	3440	1
10	4551	3450	1
10	4558	3455	1
10	4572	3465	1
10	4584	3475	1
10	4598	3485	1
10	4605	3490	1
10	4619	3500	1
10	4631	3510	1
10	4638	3515	1
10	4647	3520	1
10	4659	3530	1
10	4673	3540	1
10	4685	3550	1
10	4692	3555	1
10	4701	3560	1
10	4708	3565	1
10	4727	3580	1
10	4739	3590	1
10	4746	3595	1
10	4755	3600	1

