version 2
run FourthVerification-0-20201214-15:19:43-220816
attr configname FourthVerification
attr datetime 20201214-15:19:43
attr experiment FourthVerification
attr inifile omnetpp.ini
attr iterationvars $0=0.2
attr iterationvarsf 0.2-
attr measurement $0=0.2
attr network slottedNetwork
attr processid 220816
attr repetition 0
attr replication #0
attr resultdir results
attr runnumber 0
attr seedset 0
param **.numTransmitters 50
param **.numChannels 1
param **.bufferSize 5
param **.sendProbability 0.2
param **.expMean 4s
param **.timeSlotSize 5s
param **.thresh 20s
param **.deterministicInterarrivalTime true
param **.numTransmitters 1
param **.numChannels 1
param **.bufferSize 5
param **.sendProbability 1
param **.expMean 5s
param **.timeSlotSize 5s
param **.thresh 20s
param **.deterministicInterarrivalTime false

vector 0 slottedNetwork.transmitters[0] numPacketCreated:vector ETV
attr source numPacketCreatedSignal
vector 1 slottedNetwork.transmitters[1] numPacketCreated:vector ETV
attr source numPacketCreatedSignal
vector 2 slottedNetwork.transmitters[2] numPacketCreated:vector ETV
attr source numPacketCreatedSignal
vector 3 slottedNetwork.transmitters[3] numPacketCreated:vector ETV
attr source numPacketCreatedSignal
vector 4 slottedNetwork.transmitters[4] numPacketCreated:vector ETV
attr source numPacketCreatedSignal
vector 5 slottedNetwork.transmitters[5] numPacketCreated:vector ETV
attr source numPacketCreatedSignal
vector 6 slottedNetwork.transmitters[6] numPacketCreated:vector ETV
attr source numPacketCreatedSignal
vector 7 slottedNetwork.transmitters[7] numPacketCreated:vector ETV
attr source numPacketCreatedSignal
vector 8 slottedNetwork.transmitters[8] numPacketCreated:vector ETV
attr source numPacketCreatedSignal
vector 9 slottedNetwork.transmitters[9] numPacketCreated:vector ETV
attr source numPacketCreatedSignal
vector 10 slottedNetwork.transmitters[10] numPacketCreated:vector ETV
attr source numPacketCreatedSignal
vector 11 slottedNetwork.transmitters[11] numPacketCreated:vector ETV
attr source numPacketCreatedSignal
vector 12 slottedNetwork.transmitters[12] numPacketCreated:vector ETV
attr source numPacketCreatedSignal
vector 13 slottedNetwork.transmitters[13] numPacketCreated:vector ETV
attr source numPacketCreatedSignal
vector 14 slottedNetwork.transmitters[14] numPacketCreated:vector ETV
attr source numPacketCreatedSignal
vector 15 slottedNetwork.transmitters[15] numPacketCreated:vector ETV
attr source numPacketCreatedSignal
vector 16 slottedNetwork.transmitters[16] numPacketCreated:vector ETV
attr source numPacketCreatedSignal
vector 17 slottedNetwork.transmitters[17] numPacketCreated:vector ETV
attr source numPacketCreatedSignal
vector 18 slottedNetwork.transmitters[18] numPacketCreated:vector ETV
attr source numPacketCreatedSignal
vector 19 slottedNetwork.transmitters[19] numPacketCreated:vector ETV
attr source numPacketCreatedSignal
vector 20 slottedNetwork.transmitters[20] numPacketCreated:vector ETV
attr source numPacketCreatedSignal
vector 21 slottedNetwork.transmitters[21] numPacketCreated:vector ETV
attr source numPacketCreatedSignal
vector 22 slottedNetwork.transmitters[22] numPacketCreated:vector ETV
attr source numPacketCreatedSignal
vector 23 slottedNetwork.transmitters[23] numPacketCreated:vector ETV
attr source numPacketCreatedSignal
vector 24 slottedNetwork.transmitters[24] numPacketCreated:vector ETV
attr source numPacketCreatedSignal
vector 25 slottedNetwork.transmitters[25] numPacketCreated:vector ETV
attr source numPacketCreatedSignal
vector 26 slottedNetwork.transmitters[26] numPacketCreated:vector ETV
attr source numPacketCreatedSignal
vector 27 slottedNetwork.transmitters[27] numPacketCreated:vector ETV
attr source numPacketCreatedSignal
vector 28 slottedNetwork.transmitters[28] numPacketCreated:vector ETV
attr source numPacketCreatedSignal
vector 29 slottedNetwork.transmitters[29] numPacketCreated:vector ETV
attr source numPacketCreatedSignal
vector 30 slottedNetwork.transmitters[30] numPacketCreated:vector ETV
attr source numPacketCreatedSignal
vector 31 slottedNetwork.transmitters[31] numPacketCreated:vector ETV
attr source numPacketCreatedSignal
vector 32 slottedNetwork.transmitters[32] numPacketCreated:vector ETV
attr source numPacketCreatedSignal
vector 33 slottedNetwork.transmitters[33] numPacketCreated:vector ETV
attr source numPacketCreatedSignal
vector 34 slottedNetwork.transmitters[34] numPacketCreated:vector ETV
attr source numPacketCreatedSignal
vector 35 slottedNetwork.transmitters[35] numPacketCreated:vector ETV
attr source numPacketCreatedSignal
vector 36 slottedNetwork.transmitters[36] numPacketCreated:vector ETV
attr source numPacketCreatedSignal
vector 37 slottedNetwork.transmitters[37] numPacketCreated:vector ETV
attr source numPacketCreatedSignal
vector 38 slottedNetwork.transmitters[38] numPacketCreated:vector ETV
attr source numPacketCreatedSignal
vector 39 slottedNetwork.transmitters[39] numPacketCreated:vector ETV
attr source numPacketCreatedSignal
vector 40 slottedNetwork.transmitters[40] numPacketCreated:vector ETV
attr source numPacketCreatedSignal
vector 41 slottedNetwork.transmitters[41] numPacketCreated:vector ETV
attr source numPacketCreatedSignal
vector 42 slottedNetwork.transmitters[42] numPacketCreated:vector ETV
attr source numPacketCreatedSignal
vector 43 slottedNetwork.transmitters[43] numPacketCreated:vector ETV
attr source numPacketCreatedSignal
vector 44 slottedNetwork.transmitters[44] numPacketCreated:vector ETV
attr source numPacketCreatedSignal
vector 45 slottedNetwork.transmitters[45] numPacketCreated:vector ETV
attr source numPacketCreatedSignal
vector 46 slottedNetwork.transmitters[46] numPacketCreated:vector ETV
attr source numPacketCreatedSignal
vector 47 slottedNetwork.transmitters[47] numPacketCreated:vector ETV
attr source numPacketCreatedSignal
vector 48 slottedNetwork.transmitters[48] numPacketCreated:vector ETV
attr source numPacketCreatedSignal
vector 49 slottedNetwork.transmitters[49] numPacketCreated:vector ETV
attr source numPacketCreatedSignal
vector 50 slottedNetwork.ch throughput:vector ETV
attr source throughputSignal
vector 51 slottedNetwork.receivers[35] numPacketReceived:vector ETV
attr source numPacketReceivedSignal
vector 52 slottedNetwork.receivers[35] responseTime:vector ETV
attr source responseTimeSignal
vector 53 slottedNetwork.receivers[35] threshold:vector ETV
attr source thresholdSignal
vector 54 slottedNetwork.transmitters[0] numPacketDiscarded:vector ETV
attr source numPacketDiscardedSignal
vector 55 slottedNetwork.transmitters[1] numPacketDiscarded:vector ETV
attr source numPacketDiscardedSignal
vector 56 slottedNetwork.transmitters[2] numPacketDiscarded:vector ETV
attr source numPacketDiscardedSignal
vector 57 slottedNetwork.transmitters[3] numPacketDiscarded:vector ETV
attr source numPacketDiscardedSignal
vector 58 slottedNetwork.transmitters[4] numPacketDiscarded:vector ETV
attr source numPacketDiscardedSignal
vector 59 slottedNetwork.transmitters[5] numPacketDiscarded:vector ETV
attr source numPacketDiscardedSignal
vector 60 slottedNetwork.transmitters[6] numPacketDiscarded:vector ETV
attr source numPacketDiscardedSignal
vector 61 slottedNetwork.transmitters[7] numPacketDiscarded:vector ETV
attr source numPacketDiscardedSignal
vector 62 slottedNetwork.transmitters[8] numPacketDiscarded:vector ETV
attr source numPacketDiscardedSignal
vector 63 slottedNetwork.transmitters[9] numPacketDiscarded:vector ETV
attr source numPacketDiscardedSignal
vector 64 slottedNetwork.transmitters[10] numPacketDiscarded:vector ETV
attr source numPacketDiscardedSignal
vector 65 slottedNetwork.transmitters[11] numPacketDiscarded:vector ETV
attr source numPacketDiscardedSignal
vector 66 slottedNetwork.transmitters[12] numPacketDiscarded:vector ETV
attr source numPacketDiscardedSignal
vector 67 slottedNetwork.transmitters[13] numPacketDiscarded:vector ETV
attr source numPacketDiscardedSignal
vector 68 slottedNetwork.transmitters[14] numPacketDiscarded:vector ETV
attr source numPacketDiscardedSignal
vector 69 slottedNetwork.transmitters[15] numPacketDiscarded:vector ETV
attr source numPacketDiscardedSignal
vector 70 slottedNetwork.transmitters[16] numPacketDiscarded:vector ETV
attr source numPacketDiscardedSignal
vector 71 slottedNetwork.transmitters[17] numPacketDiscarded:vector ETV
attr source numPacketDiscardedSignal
vector 72 slottedNetwork.transmitters[18] numPacketDiscarded:vector ETV
attr source numPacketDiscardedSignal
vector 73 slottedNetwork.transmitters[19] numPacketDiscarded:vector ETV
attr source numPacketDiscardedSignal
vector 74 slottedNetwork.transmitters[20] numPacketDiscarded:vector ETV
attr source numPacketDiscardedSignal
vector 75 slottedNetwork.transmitters[21] numPacketDiscarded:vector ETV
attr source numPacketDiscardedSignal
vector 76 slottedNetwork.transmitters[22] numPacketDiscarded:vector ETV
attr source numPacketDiscardedSignal
vector 77 slottedNetwork.transmitters[23] numPacketDiscarded:vector ETV
attr source numPacketDiscardedSignal
vector 78 slottedNetwork.transmitters[24] numPacketDiscarded:vector ETV
attr source numPacketDiscardedSignal
vector 79 slottedNetwork.transmitters[25] numPacketDiscarded:vector ETV
attr source numPacketDiscardedSignal
vector 80 slottedNetwork.transmitters[26] numPacketDiscarded:vector ETV
attr source numPacketDiscardedSignal
vector 81 slottedNetwork.transmitters[27] numPacketDiscarded:vector ETV
attr source numPacketDiscardedSignal
vector 82 slottedNetwork.transmitters[28] numPacketDiscarded:vector ETV
attr source numPacketDiscardedSignal
vector 83 slottedNetwork.transmitters[29] numPacketDiscarded:vector ETV
attr source numPacketDiscardedSignal
vector 84 slottedNetwork.transmitters[30] numPacketDiscarded:vector ETV
attr source numPacketDiscardedSignal
vector 85 slottedNetwork.transmitters[31] numPacketDiscarded:vector ETV
attr source numPacketDiscardedSignal
vector 86 slottedNetwork.transmitters[32] numPacketDiscarded:vector ETV
attr source numPacketDiscardedSignal
vector 87 slottedNetwork.transmitters[33] numPacketDiscarded:vector ETV
attr source numPacketDiscardedSignal
vector 88 slottedNetwork.transmitters[34] numPacketDiscarded:vector ETV
attr source numPacketDiscardedSignal
vector 89 slottedNetwork.transmitters[36] numPacketDiscarded:vector ETV
attr source numPacketDiscardedSignal
vector 90 slottedNetwork.transmitters[37] numPacketDiscarded:vector ETV
attr source numPacketDiscardedSignal
vector 91 slottedNetwork.transmitters[38] numPacketDiscarded:vector ETV
attr source numPacketDiscardedSignal
vector 92 slottedNetwork.transmitters[39] numPacketDiscarded:vector ETV
attr source numPacketDiscardedSignal
vector 93 slottedNetwork.transmitters[40] numPacketDiscarded:vector ETV
attr source numPacketDiscardedSignal
vector 94 slottedNetwork.transmitters[41] numPacketDiscarded:vector ETV
attr source numPacketDiscardedSignal
vector 95 slottedNetwork.transmitters[42] numPacketDiscarded:vector ETV
attr source numPacketDiscardedSignal
vector 96 slottedNetwork.transmitters[43] numPacketDiscarded:vector ETV
attr source numPacketDiscardedSignal
vector 97 slottedNetwork.transmitters[44] numPacketDiscarded:vector ETV
attr source numPacketDiscardedSignal
vector 98 slottedNetwork.transmitters[45] numPacketDiscarded:vector ETV
attr source numPacketDiscardedSignal
vector 99 slottedNetwork.transmitters[46] numPacketDiscarded:vector ETV
attr source numPacketDiscardedSignal
vector 100 slottedNetwork.transmitters[47] numPacketDiscarded:vector ETV
attr source numPacketDiscardedSignal
vector 101 slottedNetwork.transmitters[48] numPacketDiscarded:vector ETV
attr source numPacketDiscardedSignal
vector 102 slottedNetwork.transmitters[49] numPacketDiscarded:vector ETV
attr source numPacketDiscardedSignal
vector 103 slottedNetwork.transmitters[35] numPacketDiscarded:vector ETV
attr source numPacketDiscardedSignal
vector 104 slottedNetwork.receivers[9] numPacketReceived:vector ETV
attr source numPacketReceivedSignal
vector 105 slottedNetwork.receivers[9] responseTime:vector ETV
attr source responseTimeSignal
vector 106 slottedNetwork.receivers[9] threshold:vector ETV
attr source thresholdSignal
vector 107 slottedNetwork.receivers[33] numPacketReceived:vector ETV
attr source numPacketReceivedSignal
vector 108 slottedNetwork.receivers[33] responseTime:vector ETV
attr source responseTimeSignal
vector 109 slottedNetwork.receivers[33] threshold:vector ETV
attr source thresholdSignal
vector 110 slottedNetwork.receivers[42] numPacketReceived:vector ETV
attr source numPacketReceivedSignal
vector 111 slottedNetwork.receivers[42] responseTime:vector ETV
attr source responseTimeSignal
vector 112 slottedNetwork.receivers[42] threshold:vector ETV
attr source thresholdSignal
vector 113 slottedNetwork.receivers[46] numPacketReceived:vector ETV
attr source numPacketReceivedSignal
vector 114 slottedNetwork.receivers[46] responseTime:vector ETV
attr source responseTimeSignal
vector 115 slottedNetwork.receivers[46] threshold:vector ETV
attr source thresholdSignal
vector 116 slottedNetwork.receivers[22] numPacketReceived:vector ETV
attr source numPacketReceivedSignal
vector 117 slottedNetwork.receivers[22] responseTime:vector ETV
attr source responseTimeSignal
vector 118 slottedNetwork.receivers[22] threshold:vector ETV
attr source thresholdSignal
vector 119 slottedNetwork.receivers[18] numPacketReceived:vector ETV
attr source numPacketReceivedSignal
vector 120 slottedNetwork.receivers[18] responseTime:vector ETV
attr source responseTimeSignal
vector 121 slottedNetwork.receivers[18] threshold:vector ETV
attr source thresholdSignal
vector 122 slottedNetwork.receivers[41] numPacketReceived:vector ETV
attr source numPacketReceivedSignal
vector 123 slottedNetwork.receivers[41] responseTime:vector ETV
attr source responseTimeSignal
vector 124 slottedNetwork.receivers[41] threshold:vector ETV
attr source thresholdSignal
vector 125 slottedNetwork.receivers[7] numPacketReceived:vector ETV
attr source numPacketReceivedSignal
vector 126 slottedNetwork.receivers[7] responseTime:vector ETV
attr source responseTimeSignal
vector 127 slottedNetwork.receivers[7] threshold:vector ETV
attr source thresholdSignal
vector 128 slottedNetwork.receivers[6] numPacketReceived:vector ETV
attr source numPacketReceivedSignal
vector 129 slottedNetwork.receivers[6] responseTime:vector ETV
attr source responseTimeSignal
vector 130 slottedNetwork.receivers[6] threshold:vector ETV
attr source thresholdSignal
vector 131 slottedNetwork.receivers[44] numPacketReceived:vector ETV
attr source numPacketReceivedSignal
vector 132 slottedNetwork.receivers[44] responseTime:vector ETV
attr source responseTimeSignal
vector 133 slottedNetwork.receivers[44] threshold:vector ETV
attr source thresholdSignal
vector 134 slottedNetwork.receivers[21] numPacketReceived:vector ETV
attr source numPacketReceivedSignal
vector 135 slottedNetwork.receivers[21] responseTime:vector ETV
attr source responseTimeSignal
vector 136 slottedNetwork.receivers[21] threshold:vector ETV
attr source thresholdSignal
vector 137 slottedNetwork.receivers[12] numPacketReceived:vector ETV
attr source numPacketReceivedSignal
vector 138 slottedNetwork.receivers[12] responseTime:vector ETV
attr source responseTimeSignal
vector 139 slottedNetwork.receivers[12] threshold:vector ETV
attr source thresholdSignal
vector 140 slottedNetwork.receivers[4] numPacketReceived:vector ETV
attr source numPacketReceivedSignal
vector 141 slottedNetwork.receivers[4] responseTime:vector ETV
attr source responseTimeSignal
vector 142 slottedNetwork.receivers[4] threshold:vector ETV
attr source thresholdSignal
vector 143 slottedNetwork.receivers[1] numPacketReceived:vector ETV
attr source numPacketReceivedSignal
vector 144 slottedNetwork.receivers[1] responseTime:vector ETV
attr source responseTimeSignal
vector 145 slottedNetwork.receivers[1] threshold:vector ETV
attr source thresholdSignal
vector 146 slottedNetwork.receivers[28] numPacketReceived:vector ETV
attr source numPacketReceivedSignal
vector 147 slottedNetwork.receivers[28] responseTime:vector ETV
attr source responseTimeSignal
vector 148 slottedNetwork.receivers[28] threshold:vector ETV
attr source thresholdSignal
vector 149 slottedNetwork.receivers[15] numPacketReceived:vector ETV
attr source numPacketReceivedSignal
vector 150 slottedNetwork.receivers[15] responseTime:vector ETV
attr source responseTimeSignal
vector 151 slottedNetwork.receivers[15] threshold:vector ETV
attr source thresholdSignal
vector 152 slottedNetwork.receivers[0] numPacketReceived:vector ETV
attr source numPacketReceivedSignal
vector 153 slottedNetwork.receivers[0] responseTime:vector ETV
attr source responseTimeSignal
vector 154 slottedNetwork.receivers[0] threshold:vector ETV
attr source thresholdSignal
vector 155 slottedNetwork.receivers[47] numPacketReceived:vector ETV
attr source numPacketReceivedSignal
vector 156 slottedNetwork.receivers[47] responseTime:vector ETV
attr source responseTimeSignal
vector 157 slottedNetwork.receivers[47] threshold:vector ETV
attr source thresholdSignal
vector 158 slottedNetwork.receivers[23] numPacketReceived:vector ETV
attr source numPacketReceivedSignal
vector 159 slottedNetwork.receivers[23] responseTime:vector ETV
attr source responseTimeSignal
vector 160 slottedNetwork.receivers[23] threshold:vector ETV
attr source thresholdSignal
vector 161 slottedNetwork.receivers[49] numPacketReceived:vector ETV
attr source numPacketReceivedSignal
vector 162 slottedNetwork.receivers[49] responseTime:vector ETV
attr source responseTimeSignal
vector 163 slottedNetwork.receivers[49] threshold:vector ETV
attr source thresholdSignal
vector 164 slottedNetwork.receivers[40] numPacketReceived:vector ETV
attr source numPacketReceivedSignal
vector 165 slottedNetwork.receivers[40] responseTime:vector ETV
attr source responseTimeSignal
vector 166 slottedNetwork.receivers[40] threshold:vector ETV
attr source thresholdSignal
vector 167 slottedNetwork.receivers[5] numPacketReceived:vector ETV
attr source numPacketReceivedSignal
vector 168 slottedNetwork.receivers[5] responseTime:vector ETV
attr source responseTimeSignal
vector 169 slottedNetwork.receivers[5] threshold:vector ETV
attr source thresholdSignal
vector 170 slottedNetwork.receivers[25] numPacketReceived:vector ETV
attr source numPacketReceivedSignal
vector 171 slottedNetwork.receivers[25] responseTime:vector ETV
attr source responseTimeSignal
vector 172 slottedNetwork.receivers[25] threshold:vector ETV
attr source thresholdSignal
vector 173 slottedNetwork.receivers[13] numPacketReceived:vector ETV
attr source numPacketReceivedSignal
vector 174 slottedNetwork.receivers[13] responseTime:vector ETV
attr source responseTimeSignal
vector 175 slottedNetwork.receivers[13] threshold:vector ETV
attr source thresholdSignal
vector 176 slottedNetwork.receivers[10] numPacketReceived:vector ETV
attr source numPacketReceivedSignal
vector 177 slottedNetwork.receivers[10] responseTime:vector ETV
attr source responseTimeSignal
vector 178 slottedNetwork.receivers[10] threshold:vector ETV
attr source thresholdSignal
vector 179 slottedNetwork.receivers[31] numPacketReceived:vector ETV
attr source numPacketReceivedSignal
vector 180 slottedNetwork.receivers[31] responseTime:vector ETV
attr source responseTimeSignal
vector 181 slottedNetwork.receivers[31] threshold:vector ETV
attr source thresholdSignal
vector 182 slottedNetwork.receivers[19] numPacketReceived:vector ETV
attr source numPacketReceivedSignal
vector 183 slottedNetwork.receivers[19] responseTime:vector ETV
attr source responseTimeSignal
vector 184 slottedNetwork.receivers[19] threshold:vector ETV
attr source thresholdSignal
vector 185 slottedNetwork.receivers[26] numPacketReceived:vector ETV
attr source numPacketReceivedSignal
vector 186 slottedNetwork.receivers[26] responseTime:vector ETV
attr source responseTimeSignal
vector 187 slottedNetwork.receivers[26] threshold:vector ETV
attr source thresholdSignal
vector 188 slottedNetwork.receivers[34] numPacketReceived:vector ETV
attr source numPacketReceivedSignal
vector 189 slottedNetwork.receivers[34] responseTime:vector ETV
attr source responseTimeSignal
vector 190 slottedNetwork.receivers[34] threshold:vector ETV
attr source thresholdSignal
vector 191 slottedNetwork.receivers[29] numPacketReceived:vector ETV
attr source numPacketReceivedSignal
vector 192 slottedNetwork.receivers[29] responseTime:vector ETV
attr source responseTimeSignal
vector 193 slottedNetwork.receivers[29] threshold:vector ETV
attr source thresholdSignal
vector 194 slottedNetwork.receivers[48] numPacketReceived:vector ETV
attr source numPacketReceivedSignal
vector 195 slottedNetwork.receivers[48] responseTime:vector ETV
attr source responseTimeSignal
vector 196 slottedNetwork.receivers[48] threshold:vector ETV
attr source thresholdSignal
0	1	4	1
0	115	8	1
0	217	12	1
0	330	16	1
0	381	20	1
0	490	24	1
0	596	28	1
0	704	32	1
0	809	36	1
0	860	40	1
0	962	44	1
0	1070	48	1
0	1176	52	1
0	1286	56	1
0	1337	60	1
0	1444	64	1
0	1549	68	1
0	1655	72	1
0	1758	76	1
0	1809	80	1
0	1916	84	1
0	2019	88	1
0	2124	92	1
0	2229	96	1
0	2280	100	1
0	2384	104	1
0	2496	108	1
0	2601	112	1
0	2704	116	1
0	2755	120	1
0	2862	124	1
0	2965	128	1
0	3070	132	1
0	3173	136	1
0	3224	140	1
0	3326	144	1
0	3435	148	1
0	3540	152	1
0	3646	156	1
0	3697	160	1
0	3800	164	1
0	3906	168	1
0	4010	172	1
0	4114	176	1
0	4165	180	1
0	4270	184	1
0	4374	188	1
0	4476	192	1
0	4580	196	1
0	4631	200	1
0	4732	204	1
0	4836	208	1
0	4939	212	1
0	5043	216	1
0	5094	220	1
0	5196	224	1
0	5301	228	1
0	5402	232	1
0	5505	236	1
0	5556	240	1
0	5660	244	1
0	5762	248	1
0	5864	252	1
0	5966	256	1
0	6017	260	1
0	6122	264	1
0	6227	268	1
0	6332	272	1
0	6434	276	1
0	6485	280	1
0	6587	284	1
0	6689	288	1
0	6793	292	1
0	6895	296	1
0	6946	300	1
0	7048	304	1
0	7155	308	1
0	7261	312	1
0	7365	316	1
0	7416	320	1
0	7518	324	1
0	7620	328	1
0	7724	332	1
0	7827	336	1
0	7878	340	1
0	7979	344	1
0	8086	348	1
0	8189	352	1
0	8291	356	1
0	8342	360	1
0	8447	364	1
0	8548	368	1
0	8652	372	1
0	8756	376	1
0	8807	380	1
0	8910	384	1
0	9015	388	1
0	9116	392	1
0	9221	396	1
0	9272	400	1
0	9372	404	1
0	9475	408	1
0	9578	412	1
0	9681	416	1
0	9732	420	1
0	9835	424	1
0	9937	428	1
0	10042	432	1
0	10143	436	1
0	10194	440	1
0	10295	444	1
0	10399	448	1
0	10502	452	1
0	10606	456	1
0	10657	460	1
0	10759	464	1
0	10860	468	1
0	10961	472	1
0	11066	476	1
0	11117	480	1
0	11218	484	1
0	11322	488	1
0	11423	492	1
0	11524	496	1
0	11575	500	1
0	11675	504	1
0	11777	508	1
0	11879	512	1
0	11982	516	1
0	12033	520	1
0	12133	524	1
0	12235	528	1
0	12341	532	1
0	12442	536	1
0	12493	540	1
0	12595	544	1
0	12697	548	1
0	12799	552	1
0	12902	556	1
0	12953	560	1
0	13055	564	1
0	13157	568	1
0	13260	572	1
0	13363	576	1
0	13414	580	1
0	13521	584	1
0	13622	588	1
0	13724	592	1
0	13828	596	1
0	13879	600	1
0	13980	604	1
0	14085	608	1
0	14189	612	1
0	14290	616	1
0	14341	620	1
0	14442	624	1
0	14547	628	1
0	14649	632	1
0	14752	636	1
0	14803	640	1
0	14906	644	1
0	15007	648	1
0	15109	652	1
0	15214	656	1
0	15265	660	1
0	15367	664	1
0	15469	668	1
0	15576	672	1
0	15681	676	1
0	15732	680	1
0	15833	684	1
0	15939	688	1
0	16042	692	1
0	16146	696	1
0	16197	700	1
0	16301	704	1
0	16403	708	1
0	16505	712	1
0	16606	716	1
0	16657	720	1
0	16757	724	1
0	16861	728	1
0	16962	732	1
0	17063	736	1
0	17114	740	1
0	17214	744	1
0	17315	748	1
0	17419	752	1
0	17522	756	1
0	17573	760	1
0	17676	764	1
0	17780	768	1
0	17882	772	1
0	17986	776	1
0	18037	780	1
0	18139	784	1
0	18240	788	1
0	18341	792	1
0	18442	796	1
0	18493	800	1
0	18594	804	1
0	18698	808	1
0	18801	812	1
0	18905	816	1
0	18956	820	1
0	19057	824	1
0	19159	828	1
0	19262	832	1
0	19365	836	1
0	19416	840	1
0	19518	844	1
0	19621	848	1
0	19722	852	1
0	19823	856	1
0	19874	860	1
0	19975	864	1
0	20078	868	1
0	20181	872	1
0	20284	876	1
0	20335	880	1
0	20438	884	1
0	20540	888	1
0	20645	892	1
0	20747	896	1
0	20798	900	1
0	20899	904	1
0	21001	908	1
0	21103	912	1
0	21204	916	1
0	21255	920	1
0	21357	924	1
0	21459	928	1
0	21561	932	1
0	21665	936	1
0	21716	940	1
0	21820	944	1
0	21922	948	1
0	22027	952	1
0	22131	956	1
0	22182	960	1
0	22284	964	1
0	22386	968	1
0	22489	972	1
0	22593	976	1
0	22644	980	1
0	22744	984	1
0	22846	988	1
0	22949	992	1
0	23053	996	1
0	23104	1000	1
0	23205	1004	1
0	23310	1008	1
0	23414	1012	1
0	23517	1016	1
0	23568	1020	1
0	23670	1024	1
0	23772	1028	1
0	23875	1032	1
0	23978	1036	1
0	24029	1040	1
0	24132	1044	1
0	24233	1048	1
0	24335	1052	1
0	24438	1056	1
0	24489	1060	1
0	24591	1064	1
0	24697	1068	1
0	24802	1072	1
0	24904	1076	1
0	24955	1080	1
0	25057	1084	1
0	25160	1088	1
0	25264	1092	1
0	25367	1096	1
0	25418	1100	1
0	25520	1104	1
0	25622	1108	1
0	25725	1112	1
0	25828	1116	1
0	25879	1120	1
0	25983	1124	1
0	26087	1128	1
0	26190	1132	1
0	26291	1136	1
0	26342	1140	1
0	26442	1144	1
0	26545	1148	1
0	26649	1152	1
0	26750	1156	1
0	26801	1160	1
0	26905	1164	1
0	27006	1168	1
0	27107	1172	1
0	27209	1176	1
0	27260	1180	1
0	27361	1184	1
0	27462	1188	1
0	27565	1192	1
0	27667	1196	1
0	27718	1200	1
0	27821	1204	1
0	27924	1208	1
0	28027	1212	1
0	28130	1216	1
0	28181	1220	1
0	28282	1224	1
0	28385	1228	1
0	28489	1232	1
0	28591	1236	1
0	28642	1240	1
0	28744	1244	1
0	28848	1248	1
0	28949	1252	1
0	29050	1256	1
0	29101	1260	1
0	29201	1264	1
0	29304	1268	1
0	29408	1272	1
0	29510	1276	1
0	29561	1280	1
0	29663	1284	1
0	29766	1288	1
0	29868	1292	1
0	29973	1296	1
0	30024	1300	1
0	30126	1304	1
0	30230	1308	1
0	30332	1312	1
0	30436	1316	1
0	30487	1320	1
0	30587	1324	1
0	30688	1328	1
0	30789	1332	1
0	30890	1336	1
0	30941	1340	1
0	31043	1344	1
0	31145	1348	1
0	31250	1352	1
0	31352	1356	1
0	31403	1360	1
0	31504	1364	1
0	31605	1368	1
0	31707	1372	1
0	31809	1376	1
0	31860	1380	1
0	31962	1384	1
0	32064	1388	1
0	32167	1392	1
0	32272	1396	1
0	32323	1400	1
0	32424	1404	1
0	32527	1408	1
0	32629	1412	1
0	32731	1416	1
0	32782	1420	1
0	32884	1424	1
0	32989	1428	1
0	33093	1432	1
0	33195	1436	1
0	33246	1440	1
0	33349	1444	1
0	33451	1448	1
0	33557	1452	1
0	33659	1456	1
0	33710	1460	1
0	33812	1464	1
0	33916	1468	1
0	34021	1472	1
0	34123	1476	1
0	34174	1480	1
0	34276	1484	1
0	34380	1488	1
0	34482	1492	1
0	34584	1496	1
0	34635	1500	1
0	34735	1504	1
0	34839	1508	1
0	34942	1512	1
0	35044	1516	1
0	35095	1520	1
0	35199	1524	1
0	35300	1528	1
0	35402	1532	1
0	35507	1536	1
0	35558	1540	1
0	35658	1544	1
0	35760	1548	1
0	35865	1552	1
0	35968	1556	1
0	36019	1560	1
0	36122	1564	1
0	36224	1568	1
0	36327	1572	1
0	36431	1576	1
0	36482	1580	1
0	36582	1584	1
0	36685	1588	1
0	36786	1592	1
0	36890	1596	1
0	36941	1600	1
0	37042	1604	1
0	37145	1608	1
0	37247	1612	1
0	37349	1616	1
0	37400	1620	1
0	37503	1624	1
0	37606	1628	1
0	37709	1632	1
0	37810	1636	1
0	37861	1640	1
0	37962	1644	1
0	38066	1648	1
0	38167	1652	1
0	38269	1656	1
0	38320	1660	1
0	38421	1664	1
0	38522	1668	1
0	38627	1672	1
0	38729	1676	1
0	38780	1680	1
0	38884	1684	1
0	38986	1688	1
0	39091	1692	1
0	39192	1696	1
0	39243	1700	1
0	39346	1704	1
0	39448	1708	1
0	39551	1712	1
0	39656	1716	1
0	39707	1720	1
0	39808	1724	1
0	39913	1728	1
0	40017	1732	1
0	40119	1736	1
0	40170	1740	1
0	40272	1744	1
0	40375	1748	1
0	40480	1752	1
0	40584	1756	1
0	40635	1760	1
0	40736	1764	1
0	40838	1768	1
0	40940	1772	1
0	41043	1776	1
0	41094	1780	1
0	41196	1784	1
0	41301	1788	1
0	41403	1792	1
0	41506	1796	1
0	41557	1800	1
0	41661	1804	1
0	41764	1808	1
0	41869	1812	1
0	41972	1816	1
0	42023	1820	1
0	42124	1824	1
0	42229	1828	1
0	42332	1832	1
0	42434	1836	1
0	42485	1840	1
0	42586	1844	1
0	42687	1848	1
0	42790	1852	1
0	42892	1856	1
0	42943	1860	1
0	43045	1864	1
0	43150	1868	1
0	43251	1872	1
0	43352	1876	1
0	43403	1880	1
0	43503	1884	1
0	43605	1888	1
0	43710	1892	1
0	43811	1896	1
0	43862	1900	1
0	43964	1904	1
0	44066	1908	1
0	44170	1912	1
0	44273	1916	1
0	44324	1920	1
0	44424	1924	1
0	44526	1928	1
0	44629	1932	1
0	44732	1936	1
0	44783	1940	1
0	44888	1944	1
0	44991	1948	1
0	45094	1952	1
0	45196	1956	1
0	45247	1960	1
0	45349	1964	1
0	45453	1968	1
0	45555	1972	1
0	45659	1976	1
0	45710	1980	1
0	45811	1984	1
0	45915	1988	1
0	46020	1992	1
0	46123	1996	1
0	46174	2000	1
0	46274	2004	1
0	46376	2008	1
0	46481	2012	1
0	46583	2016	1
0	46634	2020	1
0	46735	2024	1
0	46837	2028	1
0	46941	2032	1
0	47044	2036	1
0	47095	2040	1
0	47195	2044	1
0	47296	2048	1
0	47398	2052	1
0	47501	2056	1
0	47552	2060	1
0	47655	2064	1
0	47758	2068	1
0	47859	2072	1
0	47962	2076	1
0	48013	2080	1
0	48116	2084	1
0	48217	2088	1
0	48320	2092	1
0	48422	2096	1
0	48473	2100	1
0	48574	2104	1
0	48676	2108	1
0	48780	2112	1
0	48882	2116	1
0	48933	2120	1
0	49038	2124	1
0	49141	2128	1
0	49243	2132	1
0	49347	2136	1
0	49398	2140	1
0	49501	2144	1
0	49604	2148	1
0	49707	2152	1
0	49808	2156	1
0	49859	2160	1
0	49960	2164	1
0	50064	2168	1
0	50168	2172	1
0	50269	2176	1
0	50320	2180	1
0	50420	2184	1
0	50522	2188	1
0	50625	2192	1
0	50730	2196	1
0	50781	2200	1
0	50884	2204	1
0	50986	2208	1
0	51089	2212	1
0	51196	2216	1
0	51247	2220	1
0	51349	2224	1
0	51452	2228	1
0	51553	2232	1
0	51655	2236	1
0	51706	2240	1
0	51807	2244	1
0	51910	2248	1
0	52014	2252	1
0	52115	2256	1
0	52166	2260	1
0	52266	2264	1
0	52367	2268	1
0	52468	2272	1
0	52572	2276	1
0	52623	2280	1
0	52724	2284	1
0	52830	2288	1
0	52931	2292	1
0	53034	2296	1
0	53085	2300	1
0	53185	2304	1
0	53286	2308	1
0	53388	2312	1
0	53492	2316	1
0	53543	2320	1
0	53646	2324	1
0	53748	2328	1
0	53850	2332	1
0	53951	2336	1
0	54002	2340	1
0	54102	2344	1
0	54206	2348	1
0	54307	2352	1
0	54409	2356	1
0	54460	2360	1
0	54562	2364	1
0	54666	2368	1
0	54768	2372	1
0	54871	2376	1
0	54922	2380	1
0	55025	2384	1
0	55127	2388	1
0	55230	2392	1
0	55333	2396	1
0	55384	2400	1
0	55486	2404	1
0	55591	2408	1
0	55693	2412	1
0	55797	2416	1
0	55848	2420	1
0	55948	2424	1
0	56051	2428	1
0	56153	2432	1
0	56256	2436	1
0	56307	2440	1
0	56409	2444	1
0	56512	2448	1
0	56616	2452	1
0	56719	2456	1
0	56770	2460	1
0	56872	2464	1
0	56973	2468	1
0	57074	2472	1
0	57176	2476	1
0	57227	2480	1
0	57331	2484	1
0	57433	2488	1
0	57536	2492	1
0	57640	2496	1
0	57691	2500	1
0	57794	2504	1
0	57897	2508	1
0	57998	2512	1
0	58099	2516	1
0	58150	2520	1
0	58250	2524	1
0	58354	2528	1
0	58458	2532	1
0	58561	2536	1
0	58612	2540	1
0	58713	2544	1
0	58816	2548	1
0	58921	2552	1
0	59023	2556	1
0	59074	2560	1
0	59176	2564	1
0	59279	2568	1
0	59382	2572	1
0	59485	2576	1
0	59536	2580	1
0	59638	2584	1
0	59741	2588	1
0	59845	2592	1
0	59947	2596	1
0	59998	2600	1
0	60102	2604	1
0	60204	2608	1
0	60306	2612	1
0	60408	2616	1
0	60459	2620	1
0	60561	2624	1
0	60664	2628	1
0	60768	2632	1
0	60870	2636	1
0	60921	2640	1
0	61024	2644	1
0	61127	2648	1
0	61229	2652	1
0	61331	2656	1
0	61382	2660	1
0	61483	2664	1
0	61586	2668	1
0	61691	2672	1
0	61793	2676	1
0	61844	2680	1
0	61945	2684	1
0	62048	2688	1
0	62151	2692	1
0	62254	2696	1
0	62305	2700	1
0	62405	2704	1
0	62506	2708	1
0	62608	2712	1
0	62711	2716	1
0	62762	2720	1
0	62864	2724	1
0	62970	2728	1
0	63071	2732	1
0	63174	2736	1
0	63225	2740	1
0	63326	2744	1
0	63429	2748	1
0	63532	2752	1
0	63636	2756	1
0	63687	2760	1
0	63792	2764	1
0	63893	2768	1
0	63995	2772	1
0	64097	2776	1
0	64148	2780	1
0	64250	2784	1
0	64352	2788	1
0	64455	2792	1
0	64558	2796	1
0	64609	2800	1
0	64711	2804	1
0	64814	2808	1
0	64921	2812	1
0	65022	2816	1
0	65073	2820	1
0	65174	2824	1
0	65277	2828	1
0	65379	2832	1
0	65480	2836	1
0	65531	2840	1
0	65632	2844	1
0	65737	2848	1
0	65840	2852	1
0	65941	2856	1
0	65992	2860	1
0	66092	2864	1
0	66196	2868	1
0	66297	2872	1
0	66402	2876	1
0	66453	2880	1
0	66553	2884	1
0	66654	2888	1
0	66756	2892	1
0	66859	2896	1
0	66910	2900	1
0	67011	2904	1
0	67113	2908	1
0	67217	2912	1
0	67319	2916	1
0	67370	2920	1
0	67475	2924	1
0	67577	2928	1
0	67679	2932	1
0	67782	2936	1
0	67833	2940	1
0	67934	2944	1
0	68036	2948	1
0	68137	2952	1
0	68241	2956	1
0	68292	2960	1
0	68392	2964	1
0	68493	2968	1
0	68595	2972	1
0	68697	2976	1
0	68748	2980	1
0	68851	2984	1
0	68954	2988	1
0	69055	2992	1
0	69157	2996	1
0	69208	3000	1
0	69310	3004	1
0	69412	3008	1
0	69513	3012	1
0	69617	3016	1
0	69668	3020	1
0	69771	3024	1
0	69872	3028	1
0	69975	3032	1
0	70079	3036	1
0	70130	3040	1
0	70230	3044	1
0	70331	3048	1
0	70433	3052	1
0	70536	3056	1
0	70587	3060	1
0	70689	3064	1
0	70792	3068	1
0	70895	3072	1
0	70997	3076	1
0	71048	3080	1
0	71150	3084	1
0	71253	3088	1
0	71356	3092	1
0	71458	3096	1
0	71509	3100	1
0	71610	3104	1
0	71712	3108	1
0	71815	3112	1
0	71919	3116	1
0	71970	3120	1
0	72071	3124	1
0	72173	3128	1
0	72275	3132	1
0	72378	3136	1
0	72429	3140	1
0	72536	3144	1
0	72637	3148	1
0	72738	3152	1
0	72841	3156	1
0	72892	3160	1
0	72992	3164	1
0	73094	3168	1
0	73199	3172	1
0	73302	3176	1
0	73353	3180	1
0	73455	3184	1
0	73558	3188	1
0	73659	3192	1
0	73761	3196	1
0	73812	3200	1
0	73915	3204	1
0	74017	3208	1
0	74120	3212	1
0	74223	3216	1
0	74274	3220	1
0	74378	3224	1
0	74480	3228	1
0	74583	3232	1
0	74688	3236	1
0	74739	3240	1
0	74842	3244	1
0	74946	3248	1
0	75047	3252	1
0	75148	3256	1
0	75199	3260	1
0	75300	3264	1
0	75404	3268	1
0	75508	3272	1
0	75611	3276	1
0	75662	3280	1
0	75762	3284	1
0	75865	3288	1
0	75967	3292	1
0	76070	3296	1
0	76121	3300	1
0	76224	3304	1
0	76325	3308	1
0	76427	3312	1
0	76532	3316	1
0	76583	3320	1
0	76683	3324	1
0	76786	3328	1
0	76887	3332	1
0	76988	3336	1
0	77039	3340	1
0	77140	3344	1
0	77245	3348	1
0	77347	3352	1
0	77452	3356	1
0	77503	3360	1
0	77604	3364	1
0	77706	3368	1
0	77809	3372	1
0	77912	3376	1
0	77963	3380	1
0	78065	3384	1
0	78168	3388	1
0	78269	3392	1
0	78371	3396	1
0	78422	3400	1
0	78524	3404	1
0	78629	3408	1
0	78732	3412	1
0	78833	3416	1
0	78884	3420	1
0	78987	3424	1
0	79090	3428	1
0	79192	3432	1
0	79296	3436	1
0	79347	3440	1
0	79447	3444	1
0	79548	3448	1
0	79650	3452	1
0	79753	3456	1
0	79804	3460	1
0	79905	3464	1
0	80007	3468	1
0	80112	3472	1
0	80213	3476	1
0	80264	3480	1
0	80364	3484	1
0	80467	3488	1
0	80569	3492	1
0	80671	3496	1
0	80722	3500	1
0	80822	3504	1
0	80924	3508	1
0	81029	3512	1
0	81131	3516	1
0	81182	3520	1
0	81284	3524	1
0	81387	3528	1
0	81490	3532	1
0	81593	3536	1
0	81644	3540	1
0	81746	3544	1
0	81849	3548	1
0	81953	3552	1
0	82056	3556	1
0	82107	3560	1
0	82207	3564	1
0	82310	3568	1
0	82412	3572	1
0	82514	3576	1
0	82565	3580	1
0	82667	3584	1
0	82770	3588	1
0	82871	3592	1
0	82972	3596	1
0	83023	3600	1
1	2	4	1
1	116	8	1
1	218	12	1
1	331	16	1
1	382	20	1
1	491	24	1
1	597	28	1
1	705	32	1
1	810	36	1
1	861	40	1
1	963	44	1
1	1071	48	1
1	1177	52	1
1	1287	56	1
1	1338	60	1
1	1445	64	1
1	1550	68	1
1	1656	72	1
1	1759	76	1
1	1810	80	1
1	1917	84	1
1	2020	88	1
1	2125	92	1
1	2230	96	1
1	2281	100	1
1	2385	104	1
1	2497	108	1
1	2602	112	1
1	2705	116	1
1	2756	120	1
1	2863	124	1
1	2966	128	1
1	3071	132	1
1	3174	136	1
1	3225	140	1
1	3327	144	1
1	3436	148	1
1	3541	152	1
1	3647	156	1
1	3698	160	1
1	3801	164	1
1	3907	168	1
1	4011	172	1
1	4115	176	1
1	4166	180	1
1	4271	184	1
1	4375	188	1
1	4477	192	1
1	4581	196	1
1	4632	200	1
1	4733	204	1
1	4837	208	1
1	4940	212	1
1	5044	216	1
1	5095	220	1
1	5197	224	1
1	5302	228	1
1	5403	232	1
1	5506	236	1
1	5557	240	1
1	5661	244	1
1	5763	248	1
1	5865	252	1
1	5967	256	1
1	6018	260	1
1	6123	264	1
1	6228	268	1
1	6333	272	1
1	6435	276	1
1	6486	280	1
1	6588	284	1
1	6690	288	1
1	6794	292	1
1	6896	296	1
1	6947	300	1
1	7049	304	1
1	7156	308	1
1	7262	312	1
1	7366	316	1
1	7417	320	1
1	7519	324	1
1	7621	328	1
1	7725	332	1
1	7828	336	1
1	7879	340	1
1	7980	344	1
1	8087	348	1
1	8190	352	1
1	8292	356	1
1	8343	360	1
1	8448	364	1
1	8549	368	1
1	8653	372	1
1	8757	376	1
1	8808	380	1
1	8911	384	1
1	9016	388	1
1	9117	392	1
1	9222	396	1
1	9273	400	1
1	9373	404	1
1	9476	408	1
1	9579	412	1
1	9682	416	1
1	9733	420	1
1	9836	424	1
1	9938	428	1
1	10043	432	1
1	10144	436	1
1	10195	440	1
1	10296	444	1
1	10400	448	1
1	10503	452	1
1	10607	456	1
1	10658	460	1
1	10760	464	1
1	10861	468	1
1	10962	472	1
1	11067	476	1
1	11118	480	1
1	11219	484	1
1	11323	488	1
1	11424	492	1
1	11525	496	1
1	11576	500	1
1	11676	504	1
1	11778	508	1
1	11880	512	1
1	11983	516	1
1	12034	520	1
1	12134	524	1
1	12236	528	1
1	12342	532	1
1	12443	536	1
1	12494	540	1
1	12596	544	1
1	12698	548	1
1	12800	552	1
1	12903	556	1
1	12954	560	1
1	13056	564	1
1	13158	568	1
1	13261	572	1
1	13364	576	1
1	13415	580	1
1	13522	584	1
1	13623	588	1
1	13725	592	1
1	13829	596	1
1	13880	600	1
1	13981	604	1
1	14086	608	1
1	14190	612	1
1	14291	616	1
1	14342	620	1
1	14443	624	1
1	14548	628	1
1	14650	632	1
1	14753	636	1
1	14804	640	1
1	14907	644	1
1	15008	648	1
1	15110	652	1
1	15215	656	1
1	15266	660	1
1	15368	664	1
1	15470	668	1
1	15577	672	1
1	15682	676	1
1	15733	680	1
1	15834	684	1
1	15940	688	1
1	16043	692	1
1	16147	696	1
1	16198	700	1
1	16302	704	1
1	16404	708	1
1	16506	712	1
1	16607	716	1
1	16658	720	1
1	16758	724	1
1	16862	728	1
1	16963	732	1
1	17064	736	1
1	17115	740	1
1	17215	744	1
1	17316	748	1
1	17420	752	1
1	17523	756	1
1	17574	760	1
1	17677	764	1
1	17781	768	1
1	17883	772	1
1	17987	776	1
1	18038	780	1
1	18140	784	1
1	18241	788	1
1	18342	792	1
1	18443	796	1
1	18494	800	1
1	18595	804	1
1	18699	808	1
1	18802	812	1
1	18906	816	1
1	18957	820	1
1	19058	824	1
1	19160	828	1
1	19263	832	1
1	19366	836	1
1	19417	840	1
1	19519	844	1
1	19622	848	1
1	19723	852	1
1	19824	856	1
1	19875	860	1
1	19976	864	1
1	20079	868	1
1	20182	872	1
1	20285	876	1
1	20336	880	1
1	20439	884	1
1	20541	888	1
1	20646	892	1
1	20748	896	1
1	20799	900	1
1	20900	904	1
1	21002	908	1
1	21104	912	1
1	21205	916	1
1	21256	920	1
1	21358	924	1
1	21460	928	1
1	21562	932	1
1	21666	936	1
1	21717	940	1
1	21821	944	1
1	21923	948	1
1	22028	952	1
1	22132	956	1
1	22183	960	1
1	22285	964	1
1	22387	968	1
1	22490	972	1
1	22594	976	1
1	22645	980	1
1	22745	984	1
1	22847	988	1
1	22950	992	1
1	23054	996	1
1	23105	1000	1
1	23206	1004	1
1	23311	1008	1
1	23415	1012	1
1	23518	1016	1
1	23569	1020	1
1	23671	1024	1
1	23773	1028	1
1	23876	1032	1
1	23979	1036	1
1	24030	1040	1
1	24133	1044	1
1	24234	1048	1
1	24336	1052	1
1	24439	1056	1
1	24490	1060	1
1	24592	1064	1
1	24698	1068	1
1	24803	1072	1
1	24905	1076	1
1	24956	1080	1
1	25058	1084	1
1	25161	1088	1
1	25265	1092	1
1	25368	1096	1
1	25419	1100	1
1	25521	1104	1
1	25623	1108	1
1	25726	1112	1
1	25829	1116	1
1	25880	1120	1
1	25984	1124	1
1	26088	1128	1
1	26191	1132	1
1	26292	1136	1
1	26343	1140	1
1	26443	1144	1
1	26546	1148	1
1	26650	1152	1
1	26751	1156	1
1	26802	1160	1
1	26906	1164	1
1	27007	1168	1
1	27108	1172	1
1	27210	1176	1
1	27261	1180	1
1	27362	1184	1
1	27463	1188	1
1	27566	1192	1
1	27668	1196	1
1	27719	1200	1
1	27822	1204	1
1	27925	1208	1
1	28028	1212	1
1	28131	1216	1
1	28182	1220	1
1	28283	1224	1
1	28386	1228	1
1	28490	1232	1
1	28592	1236	1
1	28643	1240	1
1	28745	1244	1
1	28849	1248	1
1	28950	1252	1
1	29051	1256	1
1	29102	1260	1
1	29202	1264	1
1	29305	1268	1
1	29409	1272	1
1	29511	1276	1
1	29562	1280	1
1	29664	1284	1
1	29767	1288	1
1	29869	1292	1
1	29974	1296	1
1	30025	1300	1
1	30127	1304	1
1	30231	1308	1
1	30333	1312	1
1	30437	1316	1
1	30488	1320	1
1	30588	1324	1
1	30689	1328	1
1	30790	1332	1
1	30891	1336	1
1	30942	1340	1
1	31044	1344	1
1	31146	1348	1
1	31251	1352	1
1	31353	1356	1
1	31404	1360	1
1	31505	1364	1
1	31606	1368	1
1	31708	1372	1
1	31810	1376	1
1	31861	1380	1
1	31963	1384	1
1	32065	1388	1
1	32168	1392	1
1	32273	1396	1
1	32324	1400	1
1	32425	1404	1
1	32528	1408	1
1	32630	1412	1
1	32732	1416	1
1	32783	1420	1
1	32885	1424	1
1	32990	1428	1
1	33094	1432	1
1	33196	1436	1
1	33247	1440	1
1	33350	1444	1
1	33452	1448	1
1	33558	1452	1
1	33660	1456	1
1	33711	1460	1
1	33813	1464	1
1	33917	1468	1
1	34022	1472	1
1	34124	1476	1
1	34175	1480	1
1	34277	1484	1
1	34381	1488	1
1	34483	1492	1
1	34585	1496	1
1	34636	1500	1
1	34736	1504	1
1	34840	1508	1
1	34943	1512	1
1	35045	1516	1
1	35096	1520	1
1	35200	1524	1
1	35301	1528	1
1	35403	1532	1
1	35508	1536	1
1	35559	1540	1
1	35659	1544	1
1	35761	1548	1
1	35866	1552	1
1	35969	1556	1
1	36020	1560	1
1	36123	1564	1
1	36225	1568	1
1	36328	1572	1
1	36432	1576	1
1	36483	1580	1
1	36583	1584	1
1	36686	1588	1
1	36787	1592	1
1	36891	1596	1
1	36942	1600	1
1	37043	1604	1
1	37146	1608	1
1	37248	1612	1
1	37350	1616	1
1	37401	1620	1
1	37504	1624	1
1	37607	1628	1
1	37710	1632	1
1	37811	1636	1
1	37862	1640	1
1	37963	1644	1
1	38067	1648	1
1	38168	1652	1
1	38270	1656	1
1	38321	1660	1
1	38422	1664	1
1	38523	1668	1
1	38628	1672	1
1	38730	1676	1
1	38781	1680	1
1	38885	1684	1
1	38987	1688	1
1	39092	1692	1
1	39193	1696	1
1	39244	1700	1
1	39347	1704	1
1	39449	1708	1
1	39552	1712	1
1	39657	1716	1
1	39708	1720	1
1	39809	1724	1
1	39914	1728	1
1	40018	1732	1
1	40120	1736	1
1	40171	1740	1
1	40273	1744	1
1	40376	1748	1
1	40481	1752	1
1	40585	1756	1
1	40636	1760	1
1	40737	1764	1
1	40839	1768	1
1	40941	1772	1
1	41044	1776	1
1	41095	1780	1
1	41197	1784	1
1	41302	1788	1
1	41404	1792	1
1	41507	1796	1
1	41558	1800	1
1	41662	1804	1
1	41765	1808	1
1	41870	1812	1
1	41973	1816	1
1	42024	1820	1
1	42125	1824	1
1	42230	1828	1
1	42333	1832	1
1	42435	1836	1
1	42486	1840	1
1	42587	1844	1
1	42688	1848	1
1	42791	1852	1
1	42893	1856	1
1	42944	1860	1
1	43046	1864	1
1	43151	1868	1
1	43252	1872	1
1	43353	1876	1
1	43404	1880	1
1	43504	1884	1
1	43606	1888	1
1	43711	1892	1
1	43812	1896	1
1	43863	1900	1
1	43965	1904	1
1	44067	1908	1
1	44171	1912	1
1	44274	1916	1
1	44325	1920	1
1	44425	1924	1
1	44527	1928	1
1	44630	1932	1
1	44733	1936	1
1	44784	1940	1
1	44889	1944	1
1	44992	1948	1
1	45095	1952	1
1	45197	1956	1
1	45248	1960	1
1	45350	1964	1
1	45454	1968	1
1	45556	1972	1
1	45660	1976	1
1	45711	1980	1
1	45812	1984	1
1	45916	1988	1
1	46021	1992	1
1	46124	1996	1
1	46175	2000	1
1	46275	2004	1
1	46377	2008	1
1	46482	2012	1
1	46584	2016	1
1	46635	2020	1
1	46736	2024	1
1	46838	2028	1
1	46942	2032	1
1	47045	2036	1
1	47096	2040	1
1	47196	2044	1
1	47297	2048	1
1	47399	2052	1
1	47502	2056	1
1	47553	2060	1
1	47656	2064	1
1	47759	2068	1
1	47860	2072	1
1	47963	2076	1
1	48014	2080	1
1	48117	2084	1
1	48218	2088	1
1	48321	2092	1
1	48423	2096	1
1	48474	2100	1
1	48575	2104	1
1	48677	2108	1
1	48781	2112	1
1	48883	2116	1
1	48934	2120	1
1	49039	2124	1
1	49142	2128	1
1	49244	2132	1
1	49348	2136	1
1	49399	2140	1
1	49502	2144	1
1	49605	2148	1
1	49708	2152	1
1	49809	2156	1
1	49860	2160	1
1	49961	2164	1
1	50065	2168	1
1	50169	2172	1
1	50270	2176	1
1	50321	2180	1
1	50421	2184	1
1	50523	2188	1
1	50626	2192	1
1	50731	2196	1
1	50782	2200	1
1	50885	2204	1
1	50987	2208	1
1	51090	2212	1
1	51197	2216	1
1	51248	2220	1
1	51350	2224	1
1	51453	2228	1
1	51554	2232	1
1	51656	2236	1
1	51707	2240	1
1	51808	2244	1
1	51911	2248	1
1	52015	2252	1
1	52116	2256	1
1	52167	2260	1
1	52267	2264	1
1	52368	2268	1
1	52469	2272	1
1	52573	2276	1
1	52624	2280	1
1	52725	2284	1
1	52831	2288	1
1	52932	2292	1
1	53035	2296	1
1	53086	2300	1
1	53186	2304	1
1	53287	2308	1
1	53389	2312	1
1	53493	2316	1
1	53544	2320	1
1	53647	2324	1
1	53749	2328	1
1	53851	2332	1
1	53952	2336	1
1	54003	2340	1
1	54103	2344	1
1	54207	2348	1
1	54308	2352	1
1	54410	2356	1
1	54461	2360	1
1	54563	2364	1
1	54667	2368	1
1	54769	2372	1
1	54872	2376	1
1	54923	2380	1
1	55026	2384	1
1	55128	2388	1
1	55231	2392	1
1	55334	2396	1
1	55385	2400	1
1	55487	2404	1
1	55592	2408	1
1	55694	2412	1
1	55798	2416	1
1	55849	2420	1
1	55949	2424	1
1	56052	2428	1
1	56154	2432	1
1	56257	2436	1
1	56308	2440	1
1	56410	2444	1
1	56513	2448	1
1	56617	2452	1
1	56720	2456	1
1	56771	2460	1
1	56873	2464	1
1	56974	2468	1
1	57075	2472	1
1	57177	2476	1
1	57228	2480	1
1	57332	2484	1
1	57434	2488	1
1	57537	2492	1
1	57641	2496	1
1	57692	2500	1
1	57795	2504	1
1	57898	2508	1
1	57999	2512	1
1	58100	2516	1
1	58151	2520	1
1	58251	2524	1
1	58355	2528	1
1	58459	2532	1
1	58562	2536	1
1	58613	2540	1
1	58714	2544	1
1	58817	2548	1
1	58922	2552	1
1	59024	2556	1
1	59075	2560	1
1	59177	2564	1
1	59280	2568	1
1	59383	2572	1
1	59486	2576	1
1	59537	2580	1
1	59639	2584	1
1	59742	2588	1
1	59846	2592	1
1	59948	2596	1
1	59999	2600	1
1	60103	2604	1
1	60205	2608	1
1	60307	2612	1
1	60409	2616	1
1	60460	2620	1
1	60562	2624	1
1	60665	2628	1
1	60769	2632	1
1	60871	2636	1
1	60922	2640	1
1	61025	2644	1
1	61128	2648	1
1	61230	2652	1
1	61332	2656	1
1	61383	2660	1
1	61484	2664	1
1	61587	2668	1
1	61692	2672	1
1	61794	2676	1
1	61845	2680	1
1	61946	2684	1
1	62049	2688	1
1	62152	2692	1
1	62255	2696	1
1	62306	2700	1
1	62406	2704	1
1	62507	2708	1
1	62609	2712	1
1	62712	2716	1
1	62763	2720	1
1	62865	2724	1
1	62971	2728	1
1	63072	2732	1
1	63175	2736	1
1	63226	2740	1
1	63327	2744	1
1	63430	2748	1
1	63533	2752	1
1	63637	2756	1
1	63688	2760	1
1	63793	2764	1
1	63894	2768	1
1	63996	2772	1
1	64098	2776	1
1	64149	2780	1
1	64251	2784	1
1	64353	2788	1
1	64456	2792	1
1	64559	2796	1
1	64610	2800	1
1	64712	2804	1
1	64815	2808	1
1	64922	2812	1
1	65023	2816	1
1	65074	2820	1
1	65175	2824	1
1	65278	2828	1
1	65380	2832	1
1	65481	2836	1
1	65532	2840	1
1	65633	2844	1
1	65738	2848	1
1	65841	2852	1
1	65942	2856	1
1	65993	2860	1
1	66093	2864	1
1	66197	2868	1
1	66298	2872	1
1	66403	2876	1
1	66454	2880	1
1	66554	2884	1
1	66655	2888	1
1	66757	2892	1
1	66860	2896	1
1	66911	2900	1
1	67012	2904	1
1	67114	2908	1
1	67218	2912	1
1	67320	2916	1
1	67371	2920	1
1	67476	2924	1
1	67578	2928	1
1	67680	2932	1
1	67783	2936	1
1	67834	2940	1
1	67935	2944	1
1	68037	2948	1
1	68138	2952	1
1	68242	2956	1
1	68293	2960	1
1	68393	2964	1
1	68494	2968	1
1	68596	2972	1
1	68698	2976	1
1	68749	2980	1
1	68852	2984	1
1	68955	2988	1
1	69056	2992	1
1	69158	2996	1
1	69209	3000	1
1	69311	3004	1
1	69413	3008	1
1	69514	3012	1
1	69618	3016	1
1	69669	3020	1
1	69772	3024	1
1	69873	3028	1
1	69976	3032	1
1	70080	3036	1
1	70131	3040	1
1	70231	3044	1
1	70332	3048	1
1	70434	3052	1
1	70537	3056	1
1	70588	3060	1
1	70690	3064	1
1	70793	3068	1
1	70896	3072	1
1	70998	3076	1
1	71049	3080	1
1	71151	3084	1
1	71254	3088	1
1	71357	3092	1
1	71459	3096	1
1	71510	3100	1
1	71611	3104	1
1	71713	3108	1
1	71816	3112	1
1	71920	3116	1
1	71971	3120	1
1	72072	3124	1
1	72174	3128	1
1	72276	3132	1
1	72379	3136	1
1	72430	3140	1
1	72537	3144	1
1	72638	3148	1
1	72739	3152	1
1	72842	3156	1
1	72893	3160	1
1	72993	3164	1
1	73095	3168	1
1	73200	3172	1
1	73303	3176	1
1	73354	3180	1
1	73456	3184	1
1	73559	3188	1
1	73660	3192	1
1	73762	3196	1
1	73813	3200	1
1	73916	3204	1
1	74018	3208	1
1	74121	3212	1
1	74224	3216	1
1	74275	3220	1
1	74379	3224	1
1	74481	3228	1
1	74584	3232	1
1	74689	3236	1
1	74740	3240	1
1	74843	3244	1
1	74947	3248	1
1	75048	3252	1
1	75149	3256	1
1	75200	3260	1
1	75301	3264	1
1	75405	3268	1
1	75509	3272	1
1	75612	3276	1
1	75663	3280	1
1	75763	3284	1
1	75866	3288	1
1	75968	3292	1
1	76071	3296	1
1	76122	3300	1
1	76225	3304	1
1	76326	3308	1
1	76428	3312	1
1	76533	3316	1
1	76584	3320	1
1	76684	3324	1
1	76787	3328	1
1	76888	3332	1
1	76989	3336	1
1	77040	3340	1
1	77141	3344	1
1	77246	3348	1
1	77348	3352	1
1	77453	3356	1
1	77504	3360	1
1	77605	3364	1
1	77707	3368	1
1	77810	3372	1
1	77913	3376	1
1	77964	3380	1
1	78066	3384	1
1	78169	3388	1
1	78270	3392	1
1	78372	3396	1
1	78423	3400	1
1	78525	3404	1
1	78630	3408	1
1	78733	3412	1
1	78834	3416	1
1	78885	3420	1
1	78988	3424	1
1	79091	3428	1
1	79193	3432	1
1	79297	3436	1
1	79348	3440	1
1	79448	3444	1
1	79549	3448	1
1	79651	3452	1
1	79754	3456	1
1	79805	3460	1
1	79906	3464	1
1	80008	3468	1
1	80113	3472	1
1	80214	3476	1
1	80265	3480	1
1	80365	3484	1
1	80468	3488	1
1	80570	3492	1
1	80672	3496	1
1	80723	3500	1
1	80823	3504	1
1	80925	3508	1
1	81030	3512	1
1	81132	3516	1
1	81183	3520	1
1	81285	3524	1
1	81388	3528	1
1	81491	3532	1
1	81594	3536	1
1	81645	3540	1
1	81747	3544	1
1	81850	3548	1
1	81954	3552	1
1	82057	3556	1
1	82108	3560	1
1	82208	3564	1
1	82311	3568	1
1	82413	3572	1
1	82515	3576	1
1	82566	3580	1
1	82668	3584	1
1	82771	3588	1
1	82872	3592	1
1	82973	3596	1
1	83024	3600	1
2	3	4	1
2	117	8	1
2	219	12	1
2	332	16	1
2	383	20	1
2	492	24	1
2	598	28	1
2	706	32	1
2	811	36	1
2	862	40	1
2	964	44	1
2	1072	48	1
2	1178	52	1
2	1288	56	1
2	1339	60	1
2	1446	64	1
2	1551	68	1
2	1657	72	1
2	1760	76	1
2	1811	80	1
2	1918	84	1
2	2021	88	1
2	2126	92	1
2	2231	96	1
2	2282	100	1
2	2386	104	1
2	2498	108	1
2	2603	112	1
2	2706	116	1
2	2757	120	1
2	2864	124	1
2	2967	128	1
2	3072	132	1
2	3175	136	1
2	3226	140	1
2	3328	144	1
2	3437	148	1
2	3542	152	1
2	3648	156	1
2	3699	160	1
2	3802	164	1
2	3908	168	1
2	4012	172	1
2	4116	176	1
2	4167	180	1
2	4272	184	1
2	4376	188	1
2	4478	192	1
2	4582	196	1
2	4633	200	1
2	4734	204	1
2	4838	208	1
2	4941	212	1
2	5045	216	1
2	5096	220	1
2	5198	224	1
2	5303	228	1
2	5404	232	1
2	5507	236	1
2	5558	240	1
2	5662	244	1
2	5764	248	1
2	5866	252	1
2	5968	256	1
2	6019	260	1
2	6124	264	1
2	6229	268	1
2	6334	272	1
2	6436	276	1
2	6487	280	1
2	6589	284	1
2	6691	288	1
2	6795	292	1
2	6897	296	1
2	6948	300	1
2	7050	304	1
2	7157	308	1
2	7263	312	1
2	7367	316	1
2	7418	320	1
2	7520	324	1
2	7622	328	1
2	7726	332	1
2	7829	336	1
2	7880	340	1
2	7981	344	1
2	8088	348	1
2	8191	352	1
2	8293	356	1
2	8344	360	1
2	8449	364	1
2	8550	368	1
2	8654	372	1
2	8758	376	1
2	8809	380	1
2	8912	384	1
2	9017	388	1
2	9118	392	1
2	9223	396	1
2	9274	400	1
2	9374	404	1
2	9477	408	1
2	9580	412	1
2	9683	416	1
2	9734	420	1
2	9837	424	1
2	9939	428	1
2	10044	432	1
2	10145	436	1
2	10196	440	1
2	10297	444	1
2	10401	448	1
2	10504	452	1
2	10608	456	1
2	10659	460	1
2	10761	464	1
2	10862	468	1
2	10963	472	1
2	11068	476	1
2	11119	480	1
2	11220	484	1
2	11324	488	1
2	11425	492	1
2	11526	496	1
2	11577	500	1
2	11677	504	1
2	11779	508	1
2	11881	512	1
2	11984	516	1
2	12035	520	1
2	12135	524	1
2	12237	528	1
2	12343	532	1
2	12444	536	1
2	12495	540	1
2	12597	544	1
2	12699	548	1
2	12801	552	1
2	12904	556	1
2	12955	560	1
2	13057	564	1
2	13159	568	1
2	13262	572	1
2	13365	576	1
2	13416	580	1
2	13523	584	1
2	13624	588	1
2	13726	592	1
2	13830	596	1
2	13881	600	1
2	13982	604	1
2	14087	608	1
2	14191	612	1
2	14292	616	1
2	14343	620	1
2	14444	624	1
2	14549	628	1
2	14651	632	1
2	14754	636	1
2	14805	640	1
2	14908	644	1
2	15009	648	1
2	15111	652	1
2	15216	656	1
2	15267	660	1
2	15369	664	1
2	15471	668	1
2	15578	672	1
2	15683	676	1
2	15734	680	1
2	15835	684	1
2	15941	688	1
2	16044	692	1
2	16148	696	1
2	16199	700	1
2	16303	704	1
2	16405	708	1
2	16507	712	1
2	16608	716	1
2	16659	720	1
2	16759	724	1
2	16863	728	1
2	16964	732	1
2	17065	736	1
2	17116	740	1
2	17216	744	1
2	17317	748	1
2	17421	752	1
2	17524	756	1
2	17575	760	1
2	17678	764	1
2	17782	768	1
2	17884	772	1
2	17988	776	1
2	18039	780	1
2	18141	784	1
2	18242	788	1
2	18343	792	1
2	18444	796	1
2	18495	800	1
2	18596	804	1
2	18700	808	1
2	18803	812	1
2	18907	816	1
2	18958	820	1
2	19059	824	1
2	19161	828	1
2	19264	832	1
2	19367	836	1
2	19418	840	1
2	19520	844	1
2	19623	848	1
2	19724	852	1
2	19825	856	1
2	19876	860	1
2	19977	864	1
2	20080	868	1
2	20183	872	1
2	20286	876	1
2	20337	880	1
2	20440	884	1
2	20542	888	1
2	20647	892	1
2	20749	896	1
2	20800	900	1
2	20901	904	1
2	21003	908	1
2	21105	912	1
2	21206	916	1
2	21257	920	1
2	21359	924	1
2	21461	928	1
2	21563	932	1
2	21667	936	1
2	21718	940	1
2	21822	944	1
2	21924	948	1
2	22029	952	1
2	22133	956	1
2	22184	960	1
2	22286	964	1
2	22388	968	1
2	22491	972	1
2	22595	976	1
2	22646	980	1
2	22746	984	1
2	22848	988	1
2	22951	992	1
2	23055	996	1
2	23106	1000	1
2	23207	1004	1
2	23312	1008	1
2	23416	1012	1
2	23519	1016	1
2	23570	1020	1
2	23672	1024	1
2	23774	1028	1
2	23877	1032	1
2	23980	1036	1
2	24031	1040	1
2	24134	1044	1
2	24235	1048	1
2	24337	1052	1
2	24440	1056	1
2	24491	1060	1
2	24593	1064	1
2	24699	1068	1
2	24804	1072	1
2	24906	1076	1
2	24957	1080	1
2	25059	1084	1
2	25162	1088	1
2	25266	1092	1
2	25369	1096	1
2	25420	1100	1
2	25522	1104	1
2	25624	1108	1
2	25727	1112	1
2	25830	1116	1
2	25881	1120	1
2	25985	1124	1
2	26089	1128	1
2	26192	1132	1
2	26293	1136	1
2	26344	1140	1
2	26444	1144	1
2	26547	1148	1
2	26651	1152	1
2	26752	1156	1
2	26803	1160	1
2	26907	1164	1
2	27008	1168	1
2	27109	1172	1
2	27211	1176	1
2	27262	1180	1
2	27363	1184	1
2	27464	1188	1
2	27567	1192	1
2	27669	1196	1
2	27720	1200	1
2	27823	1204	1
2	27926	1208	1
2	28029	1212	1
2	28132	1216	1
2	28183	1220	1
2	28284	1224	1
2	28387	1228	1
2	28491	1232	1
2	28593	1236	1
2	28644	1240	1
2	28746	1244	1
2	28850	1248	1
2	28951	1252	1
2	29052	1256	1
2	29103	1260	1
2	29203	1264	1
2	29306	1268	1
2	29410	1272	1
2	29512	1276	1
2	29563	1280	1
2	29665	1284	1
2	29768	1288	1
2	29870	1292	1
2	29975	1296	1
2	30026	1300	1
2	30128	1304	1
2	30232	1308	1
2	30334	1312	1
2	30438	1316	1
2	30489	1320	1
2	30589	1324	1
2	30690	1328	1
2	30791	1332	1
2	30892	1336	1
2	30943	1340	1
2	31045	1344	1
2	31147	1348	1
2	31252	1352	1
2	31354	1356	1
2	31405	1360	1
2	31506	1364	1
2	31607	1368	1
2	31709	1372	1
2	31811	1376	1
2	31862	1380	1
2	31964	1384	1
2	32066	1388	1
2	32169	1392	1
2	32274	1396	1
2	32325	1400	1
2	32426	1404	1
2	32529	1408	1
2	32631	1412	1
2	32733	1416	1
2	32784	1420	1
2	32886	1424	1
2	32991	1428	1
2	33095	1432	1
2	33197	1436	1
2	33248	1440	1
2	33351	1444	1
2	33453	1448	1
2	33559	1452	1
2	33661	1456	1
2	33712	1460	1
2	33814	1464	1
2	33918	1468	1
2	34023	1472	1
2	34125	1476	1
2	34176	1480	1
2	34278	1484	1
2	34382	1488	1
2	34484	1492	1
2	34586	1496	1
2	34637	1500	1
2	34737	1504	1
2	34841	1508	1
2	34944	1512	1
2	35046	1516	1
2	35097	1520	1
2	35201	1524	1
2	35302	1528	1
2	35404	1532	1
2	35509	1536	1
2	35560	1540	1
2	35660	1544	1
2	35762	1548	1
2	35867	1552	1
2	35970	1556	1
2	36021	1560	1
2	36124	1564	1
2	36226	1568	1
2	36329	1572	1
2	36433	1576	1
2	36484	1580	1
2	36584	1584	1
2	36687	1588	1
2	36788	1592	1
2	36892	1596	1
2	36943	1600	1
2	37044	1604	1
2	37147	1608	1
2	37249	1612	1
2	37351	1616	1
2	37402	1620	1
2	37505	1624	1
2	37608	1628	1
2	37711	1632	1
2	37812	1636	1
2	37863	1640	1
2	37964	1644	1
2	38068	1648	1
2	38169	1652	1
2	38271	1656	1
2	38322	1660	1
2	38423	1664	1
2	38524	1668	1
2	38629	1672	1
2	38731	1676	1
2	38782	1680	1
2	38886	1684	1
2	38988	1688	1
2	39093	1692	1
2	39194	1696	1
2	39245	1700	1
2	39348	1704	1
2	39450	1708	1
2	39553	1712	1
2	39658	1716	1
2	39709	1720	1
2	39810	1724	1
2	39915	1728	1
2	40019	1732	1
2	40121	1736	1
2	40172	1740	1
2	40274	1744	1
2	40377	1748	1
2	40482	1752	1
2	40586	1756	1
2	40637	1760	1
2	40738	1764	1
2	40840	1768	1
2	40942	1772	1
2	41045	1776	1
2	41096	1780	1
2	41198	1784	1
2	41303	1788	1
2	41405	1792	1
2	41508	1796	1
2	41559	1800	1
2	41663	1804	1
2	41766	1808	1
2	41871	1812	1
2	41974	1816	1
2	42025	1820	1
2	42126	1824	1
2	42231	1828	1
2	42334	1832	1
2	42436	1836	1
2	42487	1840	1
2	42588	1844	1
2	42689	1848	1
2	42792	1852	1
2	42894	1856	1
2	42945	1860	1
2	43047	1864	1
2	43152	1868	1
2	43253	1872	1
2	43354	1876	1
2	43405	1880	1
2	43505	1884	1
2	43607	1888	1
2	43712	1892	1
2	43813	1896	1
2	43864	1900	1
2	43966	1904	1
2	44068	1908	1
2	44172	1912	1
2	44275	1916	1
2	44326	1920	1
2	44426	1924	1
2	44528	1928	1
2	44631	1932	1
2	44734	1936	1
2	44785	1940	1
2	44890	1944	1
2	44993	1948	1
2	45096	1952	1
2	45198	1956	1
2	45249	1960	1
2	45351	1964	1
2	45455	1968	1
2	45557	1972	1
2	45661	1976	1
2	45712	1980	1
2	45813	1984	1
2	45917	1988	1
2	46022	1992	1
2	46125	1996	1
2	46176	2000	1
2	46276	2004	1
2	46378	2008	1
2	46483	2012	1
2	46585	2016	1
2	46636	2020	1
2	46737	2024	1
2	46839	2028	1
2	46943	2032	1
2	47046	2036	1
2	47097	2040	1
2	47197	2044	1
2	47298	2048	1
2	47400	2052	1
2	47503	2056	1
2	47554	2060	1
2	47657	2064	1
2	47760	2068	1
2	47861	2072	1
2	47964	2076	1
2	48015	2080	1
2	48118	2084	1
2	48219	2088	1
2	48322	2092	1
2	48424	2096	1
2	48475	2100	1
2	48576	2104	1
2	48678	2108	1
2	48782	2112	1
2	48884	2116	1
2	48935	2120	1
2	49040	2124	1
2	49143	2128	1
2	49245	2132	1
2	49349	2136	1
2	49400	2140	1
2	49503	2144	1
2	49606	2148	1
2	49709	2152	1
2	49810	2156	1
2	49861	2160	1
2	49962	2164	1
2	50066	2168	1
2	50170	2172	1
2	50271	2176	1
2	50322	2180	1
2	50422	2184	1
2	50524	2188	1
2	50627	2192	1
2	50732	2196	1
2	50783	2200	1
2	50886	2204	1
2	50988	2208	1
2	51091	2212	1
2	51198	2216	1
2	51249	2220	1
2	51351	2224	1
2	51454	2228	1
2	51555	2232	1
2	51657	2236	1
2	51708	2240	1
2	51809	2244	1
2	51912	2248	1
2	52016	2252	1
2	52117	2256	1
2	52168	2260	1
2	52268	2264	1
2	52369	2268	1
2	52470	2272	1
2	52574	2276	1
2	52625	2280	1
2	52726	2284	1
2	52832	2288	1
2	52933	2292	1
2	53036	2296	1
2	53087	2300	1
2	53187	2304	1
2	53288	2308	1
2	53390	2312	1
2	53494	2316	1
2	53545	2320	1
2	53648	2324	1
2	53750	2328	1
2	53852	2332	1
2	53953	2336	1
2	54004	2340	1
2	54104	2344	1
2	54208	2348	1
2	54309	2352	1
2	54411	2356	1
2	54462	2360	1
2	54564	2364	1
2	54668	2368	1
2	54770	2372	1
2	54873	2376	1
2	54924	2380	1
2	55027	2384	1
2	55129	2388	1
2	55232	2392	1
2	55335	2396	1
2	55386	2400	1
2	55488	2404	1
2	55593	2408	1
2	55695	2412	1
2	55799	2416	1
2	55850	2420	1
2	55950	2424	1
2	56053	2428	1
2	56155	2432	1
2	56258	2436	1
2	56309	2440	1
2	56411	2444	1
2	56514	2448	1
2	56618	2452	1
2	56721	2456	1
2	56772	2460	1
2	56874	2464	1
2	56975	2468	1
2	57076	2472	1
2	57178	2476	1
2	57229	2480	1
2	57333	2484	1
2	57435	2488	1
2	57538	2492	1
2	57642	2496	1
2	57693	2500	1
2	57796	2504	1
2	57899	2508	1
2	58000	2512	1
2	58101	2516	1
2	58152	2520	1
2	58252	2524	1
2	58356	2528	1
2	58460	2532	1
2	58563	2536	1
2	58614	2540	1
2	58715	2544	1
2	58818	2548	1
2	58923	2552	1
2	59025	2556	1
2	59076	2560	1
2	59178	2564	1
2	59281	2568	1
2	59384	2572	1
2	59487	2576	1
2	59538	2580	1
2	59640	2584	1
2	59743	2588	1
2	59847	2592	1
2	59949	2596	1
2	60000	2600	1
2	60104	2604	1
2	60206	2608	1
2	60308	2612	1
2	60410	2616	1
2	60461	2620	1
2	60563	2624	1
2	60666	2628	1
2	60770	2632	1
2	60872	2636	1
2	60923	2640	1
2	61026	2644	1
2	61129	2648	1
2	61231	2652	1
2	61333	2656	1
2	61384	2660	1
2	61485	2664	1
2	61588	2668	1
2	61693	2672	1
2	61795	2676	1
2	61846	2680	1
2	61947	2684	1
2	62050	2688	1
2	62153	2692	1
2	62256	2696	1
2	62307	2700	1
2	62407	2704	1
2	62508	2708	1
2	62610	2712	1
2	62713	2716	1
2	62764	2720	1
2	62866	2724	1
2	62972	2728	1
2	63073	2732	1
2	63176	2736	1
2	63227	2740	1
2	63328	2744	1
2	63431	2748	1
2	63534	2752	1
2	63638	2756	1
2	63689	2760	1
2	63794	2764	1
2	63895	2768	1
2	63997	2772	1
2	64099	2776	1
2	64150	2780	1
2	64252	2784	1
2	64354	2788	1
2	64457	2792	1
2	64560	2796	1
2	64611	2800	1
2	64713	2804	1
2	64816	2808	1
2	64923	2812	1
2	65024	2816	1
2	65075	2820	1
2	65176	2824	1
2	65279	2828	1
2	65381	2832	1
2	65482	2836	1
2	65533	2840	1
2	65634	2844	1
2	65739	2848	1
2	65842	2852	1
2	65943	2856	1
2	65994	2860	1
2	66094	2864	1
2	66198	2868	1
2	66299	2872	1
2	66404	2876	1
2	66455	2880	1
2	66555	2884	1
2	66656	2888	1
2	66758	2892	1
2	66861	2896	1
2	66912	2900	1
2	67013	2904	1
2	67115	2908	1
2	67219	2912	1
2	67321	2916	1
2	67372	2920	1
2	67477	2924	1
2	67579	2928	1
2	67681	2932	1
2	67784	2936	1
2	67835	2940	1
2	67936	2944	1
2	68038	2948	1
2	68139	2952	1
2	68243	2956	1
2	68294	2960	1
2	68394	2964	1
2	68495	2968	1
2	68597	2972	1
2	68699	2976	1
2	68750	2980	1
2	68853	2984	1
2	68956	2988	1
2	69057	2992	1
2	69159	2996	1
2	69210	3000	1
2	69312	3004	1
2	69414	3008	1
2	69515	3012	1
2	69619	3016	1
2	69670	3020	1
2	69773	3024	1
2	69874	3028	1
2	69977	3032	1
2	70081	3036	1
2	70132	3040	1
2	70232	3044	1
2	70333	3048	1
2	70435	3052	1
2	70538	3056	1
2	70589	3060	1
2	70691	3064	1
2	70794	3068	1
2	70897	3072	1
2	70999	3076	1
2	71050	3080	1
2	71152	3084	1
2	71255	3088	1
2	71358	3092	1
2	71460	3096	1
2	71511	3100	1
2	71612	3104	1
2	71714	3108	1
2	71817	3112	1
2	71921	3116	1
2	71972	3120	1
2	72073	3124	1
2	72175	3128	1
2	72277	3132	1
2	72380	3136	1
2	72431	3140	1
2	72538	3144	1
2	72639	3148	1
2	72740	3152	1
2	72843	3156	1
2	72894	3160	1
2	72994	3164	1
2	73096	3168	1
2	73201	3172	1
2	73304	3176	1
2	73355	3180	1
2	73457	3184	1
2	73560	3188	1
2	73661	3192	1
2	73763	3196	1
2	73814	3200	1
2	73917	3204	1
2	74019	3208	1
2	74122	3212	1
2	74225	3216	1
2	74276	3220	1
2	74380	3224	1
2	74482	3228	1
2	74585	3232	1
2	74690	3236	1
2	74741	3240	1
2	74844	3244	1
2	74948	3248	1
2	75049	3252	1
2	75150	3256	1
2	75201	3260	1
2	75302	3264	1
2	75406	3268	1
2	75510	3272	1
2	75613	3276	1
2	75664	3280	1
2	75764	3284	1
2	75867	3288	1
2	75969	3292	1
2	76072	3296	1
2	76123	3300	1
2	76226	3304	1
2	76327	3308	1
2	76429	3312	1
2	76534	3316	1
2	76585	3320	1
2	76685	3324	1
2	76788	3328	1
2	76889	3332	1
2	76990	3336	1
2	77041	3340	1
2	77142	3344	1
2	77247	3348	1
2	77349	3352	1
2	77454	3356	1
2	77505	3360	1
2	77606	3364	1
2	77708	3368	1
2	77811	3372	1
2	77914	3376	1
2	77965	3380	1
2	78067	3384	1
2	78170	3388	1
2	78271	3392	1
2	78373	3396	1
2	78424	3400	1
2	78526	3404	1
2	78631	3408	1
2	78734	3412	1
2	78835	3416	1
2	78886	3420	1
2	78989	3424	1
2	79092	3428	1
2	79194	3432	1
2	79298	3436	1
2	79349	3440	1
2	79449	3444	1
2	79550	3448	1
2	79652	3452	1
2	79755	3456	1
2	79806	3460	1
2	79907	3464	1
2	80009	3468	1
2	80114	3472	1
2	80215	3476	1
2	80266	3480	1
2	80366	3484	1
2	80469	3488	1
2	80571	3492	1
2	80673	3496	1
2	80724	3500	1
2	80824	3504	1
2	80926	3508	1
2	81031	3512	1
2	81133	3516	1
2	81184	3520	1
2	81286	3524	1
2	81389	3528	1
2	81492	3532	1
2	81595	3536	1
2	81646	3540	1
2	81748	3544	1
2	81851	3548	1
2	81955	3552	1
2	82058	3556	1
2	82109	3560	1
2	82209	3564	1
2	82312	3568	1
2	82414	3572	1
2	82516	3576	1
2	82567	3580	1
2	82669	3584	1
2	82772	3588	1
2	82873	3592	1
2	82974	3596	1
2	83025	3600	1
3	4	4	1
3	118	8	1
3	220	12	1
3	333	16	1
3	384	20	1
3	493	24	1
3	599	28	1
3	707	32	1
3	812	36	1
3	863	40	1
3	965	44	1
3	1073	48	1
3	1179	52	1
3	1289	56	1
3	1340	60	1
3	1447	64	1
3	1552	68	1
3	1658	72	1
3	1761	76	1
3	1812	80	1
3	1919	84	1
3	2022	88	1
3	2127	92	1
3	2232	96	1
3	2283	100	1
3	2387	104	1
3	2499	108	1
3	2604	112	1
3	2707	116	1
3	2758	120	1
3	2865	124	1
3	2968	128	1
3	3073	132	1
3	3176	136	1
3	3227	140	1
3	3329	144	1
3	3438	148	1
3	3543	152	1
3	3649	156	1
3	3700	160	1
3	3803	164	1
3	3909	168	1
3	4013	172	1
3	4117	176	1
3	4168	180	1
3	4273	184	1
3	4377	188	1
3	4479	192	1
3	4583	196	1
3	4634	200	1
3	4735	204	1
3	4839	208	1
3	4942	212	1
3	5046	216	1
3	5097	220	1
3	5199	224	1
3	5304	228	1
3	5405	232	1
3	5508	236	1
3	5559	240	1
3	5663	244	1
3	5765	248	1
3	5867	252	1
3	5969	256	1
3	6020	260	1
3	6125	264	1
3	6230	268	1
3	6335	272	1
3	6437	276	1
3	6488	280	1
3	6590	284	1
3	6692	288	1
3	6796	292	1
3	6898	296	1
3	6949	300	1
3	7051	304	1
3	7158	308	1
3	7264	312	1
3	7368	316	1
3	7419	320	1
3	7521	324	1
3	7623	328	1
3	7727	332	1
3	7830	336	1
3	7881	340	1
3	7982	344	1
3	8089	348	1
3	8192	352	1
3	8294	356	1
3	8345	360	1
3	8450	364	1
3	8551	368	1
3	8655	372	1
3	8759	376	1
3	8810	380	1
3	8913	384	1
3	9018	388	1
3	9119	392	1
3	9224	396	1
3	9275	400	1
3	9375	404	1
3	9478	408	1
3	9581	412	1
3	9684	416	1
3	9735	420	1
3	9838	424	1
3	9940	428	1
3	10045	432	1
3	10146	436	1
3	10197	440	1
3	10298	444	1
3	10402	448	1
3	10505	452	1
3	10609	456	1
3	10660	460	1
3	10762	464	1
3	10863	468	1
3	10964	472	1
3	11069	476	1
3	11120	480	1
3	11221	484	1
3	11325	488	1
3	11426	492	1
3	11527	496	1
3	11578	500	1
3	11678	504	1
3	11780	508	1
3	11882	512	1
3	11985	516	1
3	12036	520	1
3	12136	524	1
3	12238	528	1
3	12344	532	1
3	12445	536	1
3	12496	540	1
3	12598	544	1
3	12700	548	1
3	12802	552	1
3	12905	556	1
3	12956	560	1
3	13058	564	1
3	13160	568	1
3	13263	572	1
3	13366	576	1
3	13417	580	1
3	13524	584	1
3	13625	588	1
3	13727	592	1
3	13831	596	1
3	13882	600	1
3	13983	604	1
3	14088	608	1
3	14192	612	1
3	14293	616	1
3	14344	620	1
3	14445	624	1
3	14550	628	1
3	14652	632	1
3	14755	636	1
3	14806	640	1
3	14909	644	1
3	15010	648	1
3	15112	652	1
3	15217	656	1
3	15268	660	1
3	15370	664	1
3	15472	668	1
3	15579	672	1
3	15684	676	1
3	15735	680	1
3	15836	684	1
3	15942	688	1
3	16045	692	1
3	16149	696	1
3	16200	700	1
3	16304	704	1
3	16406	708	1
3	16508	712	1
3	16609	716	1
3	16660	720	1
3	16760	724	1
3	16864	728	1
3	16965	732	1
3	17066	736	1
3	17117	740	1
3	17217	744	1
3	17318	748	1
3	17422	752	1
3	17525	756	1
3	17576	760	1
3	17679	764	1
3	17783	768	1
3	17885	772	1
3	17989	776	1
3	18040	780	1
3	18142	784	1
3	18243	788	1
3	18344	792	1
3	18445	796	1
3	18496	800	1
3	18597	804	1
3	18701	808	1
3	18804	812	1
3	18908	816	1
3	18959	820	1
3	19060	824	1
3	19162	828	1
3	19265	832	1
3	19368	836	1
3	19419	840	1
3	19521	844	1
3	19624	848	1
3	19725	852	1
3	19826	856	1
3	19877	860	1
3	19978	864	1
3	20081	868	1
3	20184	872	1
3	20287	876	1
3	20338	880	1
3	20441	884	1
3	20543	888	1
3	20648	892	1
3	20750	896	1
3	20801	900	1
3	20902	904	1
3	21004	908	1
3	21106	912	1
3	21207	916	1
3	21258	920	1
3	21360	924	1
3	21462	928	1
3	21564	932	1
3	21668	936	1
3	21719	940	1
3	21823	944	1
3	21925	948	1
3	22030	952	1
3	22134	956	1
3	22185	960	1
3	22287	964	1
3	22389	968	1
3	22492	972	1
3	22596	976	1
3	22647	980	1
3	22747	984	1
3	22849	988	1
3	22952	992	1
3	23056	996	1
3	23107	1000	1
3	23208	1004	1
3	23313	1008	1
3	23417	1012	1
3	23520	1016	1
3	23571	1020	1
3	23673	1024	1
3	23775	1028	1
3	23878	1032	1
3	23981	1036	1
3	24032	1040	1
3	24135	1044	1
3	24236	1048	1
3	24338	1052	1
3	24441	1056	1
3	24492	1060	1
3	24594	1064	1
3	24700	1068	1
3	24805	1072	1
3	24907	1076	1
3	24958	1080	1
3	25060	1084	1
3	25163	1088	1
3	25267	1092	1
3	25370	1096	1
3	25421	1100	1
3	25523	1104	1
3	25625	1108	1
3	25728	1112	1
3	25831	1116	1
3	25882	1120	1
3	25986	1124	1
3	26090	1128	1
3	26193	1132	1
3	26294	1136	1
3	26345	1140	1
3	26445	1144	1
3	26548	1148	1
3	26652	1152	1
3	26753	1156	1
3	26804	1160	1
3	26908	1164	1
3	27009	1168	1
3	27110	1172	1
3	27212	1176	1
3	27263	1180	1
3	27364	1184	1
3	27465	1188	1
3	27568	1192	1
3	27670	1196	1
3	27721	1200	1
3	27824	1204	1
3	27927	1208	1
3	28030	1212	1
3	28133	1216	1
3	28184	1220	1
3	28285	1224	1
3	28388	1228	1
3	28492	1232	1
3	28594	1236	1
3	28645	1240	1
3	28747	1244	1
3	28851	1248	1
3	28952	1252	1
3	29053	1256	1
3	29104	1260	1
3	29204	1264	1
3	29307	1268	1
3	29411	1272	1
3	29513	1276	1
3	29564	1280	1
3	29666	1284	1
3	29769	1288	1
3	29871	1292	1
3	29976	1296	1
3	30027	1300	1
3	30129	1304	1
3	30233	1308	1
3	30335	1312	1
3	30439	1316	1
3	30490	1320	1
3	30590	1324	1
3	30691	1328	1
3	30792	1332	1
3	30893	1336	1
3	30944	1340	1
3	31046	1344	1
3	31148	1348	1
3	31253	1352	1
3	31355	1356	1
3	31406	1360	1
3	31507	1364	1
3	31608	1368	1
3	31710	1372	1
3	31812	1376	1
3	31863	1380	1
3	31965	1384	1
3	32067	1388	1
3	32170	1392	1
3	32275	1396	1
3	32326	1400	1
3	32427	1404	1
3	32530	1408	1
3	32632	1412	1
3	32734	1416	1
3	32785	1420	1
3	32887	1424	1
3	32992	1428	1
3	33096	1432	1
3	33198	1436	1
3	33249	1440	1
3	33352	1444	1
3	33454	1448	1
3	33560	1452	1
3	33662	1456	1
3	33713	1460	1
3	33815	1464	1
3	33919	1468	1
3	34024	1472	1
3	34126	1476	1
3	34177	1480	1
3	34279	1484	1
3	34383	1488	1
3	34485	1492	1
3	34587	1496	1
3	34638	1500	1
3	34738	1504	1
3	34842	1508	1
3	34945	1512	1
3	35047	1516	1
3	35098	1520	1
3	35202	1524	1
3	35303	1528	1
3	35405	1532	1
3	35510	1536	1
3	35561	1540	1
3	35661	1544	1
3	35763	1548	1
3	35868	1552	1
3	35971	1556	1
3	36022	1560	1
3	36125	1564	1
3	36227	1568	1
3	36330	1572	1
3	36434	1576	1
3	36485	1580	1
3	36585	1584	1
3	36688	1588	1
3	36789	1592	1
3	36893	1596	1
3	36944	1600	1
3	37045	1604	1
3	37148	1608	1
3	37250	1612	1
3	37352	1616	1
3	37403	1620	1
3	37506	1624	1
3	37609	1628	1
3	37712	1632	1
3	37813	1636	1
3	37864	1640	1
3	37965	1644	1
3	38069	1648	1
3	38170	1652	1
3	38272	1656	1
3	38323	1660	1
3	38424	1664	1
3	38525	1668	1
3	38630	1672	1
3	38732	1676	1
3	38783	1680	1
3	38887	1684	1
3	38989	1688	1
3	39094	1692	1
3	39195	1696	1
3	39246	1700	1
3	39349	1704	1
3	39451	1708	1
3	39554	1712	1
3	39659	1716	1
3	39710	1720	1
3	39811	1724	1
3	39916	1728	1
3	40020	1732	1
3	40122	1736	1
3	40173	1740	1
3	40275	1744	1
3	40378	1748	1
3	40483	1752	1
3	40587	1756	1
3	40638	1760	1
3	40739	1764	1
3	40841	1768	1
3	40943	1772	1
3	41046	1776	1
3	41097	1780	1
3	41199	1784	1
3	41304	1788	1
3	41406	1792	1
3	41509	1796	1
3	41560	1800	1
3	41664	1804	1
3	41767	1808	1
3	41872	1812	1
3	41975	1816	1
3	42026	1820	1
3	42127	1824	1
3	42232	1828	1
3	42335	1832	1
3	42437	1836	1
3	42488	1840	1
3	42589	1844	1
3	42690	1848	1
3	42793	1852	1
3	42895	1856	1
3	42946	1860	1
3	43048	1864	1
3	43153	1868	1
3	43254	1872	1
3	43355	1876	1
3	43406	1880	1
3	43506	1884	1
3	43608	1888	1
3	43713	1892	1
3	43814	1896	1
3	43865	1900	1
3	43967	1904	1
3	44069	1908	1
3	44173	1912	1
3	44276	1916	1
3	44327	1920	1
3	44427	1924	1
3	44529	1928	1
3	44632	1932	1
3	44735	1936	1
3	44786	1940	1
3	44891	1944	1
3	44994	1948	1
3	45097	1952	1
3	45199	1956	1
3	45250	1960	1
3	45352	1964	1
3	45456	1968	1
3	45558	1972	1
3	45662	1976	1
3	45713	1980	1
3	45814	1984	1
3	45918	1988	1
3	46023	1992	1
3	46126	1996	1
3	46177	2000	1
3	46277	2004	1
3	46379	2008	1
3	46484	2012	1
3	46586	2016	1
3	46637	2020	1
3	46738	2024	1
3	46840	2028	1
3	46944	2032	1
3	47047	2036	1
3	47098	2040	1
3	47198	2044	1
3	47299	2048	1
3	47401	2052	1
3	47504	2056	1
3	47555	2060	1
3	47658	2064	1
3	47761	2068	1
3	47862	2072	1
3	47965	2076	1
3	48016	2080	1
3	48119	2084	1
3	48220	2088	1
3	48323	2092	1
3	48425	2096	1
3	48476	2100	1
3	48577	2104	1
3	48679	2108	1
3	48783	2112	1
3	48885	2116	1
3	48936	2120	1
3	49041	2124	1
3	49144	2128	1
3	49246	2132	1
3	49350	2136	1
3	49401	2140	1
3	49504	2144	1
3	49607	2148	1
3	49710	2152	1
3	49811	2156	1
3	49862	2160	1
3	49963	2164	1
3	50067	2168	1
3	50171	2172	1
3	50272	2176	1
3	50323	2180	1
3	50423	2184	1
3	50525	2188	1
3	50628	2192	1
3	50733	2196	1
3	50784	2200	1
3	50887	2204	1
3	50989	2208	1
3	51092	2212	1
3	51199	2216	1
3	51250	2220	1
3	51352	2224	1
3	51455	2228	1
3	51556	2232	1
3	51658	2236	1
3	51709	2240	1
3	51810	2244	1
3	51913	2248	1
3	52017	2252	1
3	52118	2256	1
3	52169	2260	1
3	52269	2264	1
3	52370	2268	1
3	52471	2272	1
3	52575	2276	1
3	52626	2280	1
3	52727	2284	1
3	52833	2288	1
3	52934	2292	1
3	53037	2296	1
3	53088	2300	1
3	53188	2304	1
3	53289	2308	1
3	53391	2312	1
3	53495	2316	1
3	53546	2320	1
3	53649	2324	1
3	53751	2328	1
3	53853	2332	1
3	53954	2336	1
3	54005	2340	1
3	54105	2344	1
3	54209	2348	1
3	54310	2352	1
3	54412	2356	1
3	54463	2360	1
3	54565	2364	1
3	54669	2368	1
3	54771	2372	1
3	54874	2376	1
3	54925	2380	1
3	55028	2384	1
3	55130	2388	1
3	55233	2392	1
3	55336	2396	1
3	55387	2400	1
3	55489	2404	1
3	55594	2408	1
3	55696	2412	1
3	55800	2416	1
3	55851	2420	1
3	55951	2424	1
3	56054	2428	1
3	56156	2432	1
3	56259	2436	1
3	56310	2440	1
3	56412	2444	1
3	56515	2448	1
3	56619	2452	1
3	56722	2456	1
3	56773	2460	1
3	56875	2464	1
3	56976	2468	1
3	57077	2472	1
3	57179	2476	1
3	57230	2480	1
3	57334	2484	1
3	57436	2488	1
3	57539	2492	1
3	57643	2496	1
3	57694	2500	1
3	57797	2504	1
3	57900	2508	1
3	58001	2512	1
3	58102	2516	1
3	58153	2520	1
3	58253	2524	1
3	58357	2528	1
3	58461	2532	1
3	58564	2536	1
3	58615	2540	1
3	58716	2544	1
3	58819	2548	1
3	58924	2552	1
3	59026	2556	1
3	59077	2560	1
3	59179	2564	1
3	59282	2568	1
3	59385	2572	1
3	59488	2576	1
3	59539	2580	1
3	59641	2584	1
3	59744	2588	1
3	59848	2592	1
3	59950	2596	1
3	60001	2600	1
3	60105	2604	1
3	60207	2608	1
3	60309	2612	1
3	60411	2616	1
3	60462	2620	1
3	60564	2624	1
3	60667	2628	1
3	60771	2632	1
3	60873	2636	1
3	60924	2640	1
3	61027	2644	1
3	61130	2648	1
3	61232	2652	1
3	61334	2656	1
3	61385	2660	1
3	61486	2664	1
3	61589	2668	1
3	61694	2672	1
3	61796	2676	1
3	61847	2680	1
3	61948	2684	1
3	62051	2688	1
3	62154	2692	1
3	62257	2696	1
3	62308	2700	1
3	62408	2704	1
3	62509	2708	1
3	62611	2712	1
3	62714	2716	1
3	62765	2720	1
3	62867	2724	1
3	62973	2728	1
3	63074	2732	1
3	63177	2736	1
3	63228	2740	1
3	63329	2744	1
3	63432	2748	1
3	63535	2752	1
3	63639	2756	1
3	63690	2760	1
3	63795	2764	1
3	63896	2768	1
3	63998	2772	1
3	64100	2776	1
3	64151	2780	1
3	64253	2784	1
3	64355	2788	1
3	64458	2792	1
3	64561	2796	1
3	64612	2800	1
3	64714	2804	1
3	64817	2808	1
3	64924	2812	1
3	65025	2816	1
3	65076	2820	1
3	65177	2824	1
3	65280	2828	1
3	65382	2832	1
3	65483	2836	1
3	65534	2840	1
3	65635	2844	1
3	65740	2848	1
3	65843	2852	1
3	65944	2856	1
3	65995	2860	1
3	66095	2864	1
3	66199	2868	1
3	66300	2872	1
3	66405	2876	1
3	66456	2880	1
3	66556	2884	1
3	66657	2888	1
3	66759	2892	1
3	66862	2896	1
3	66913	2900	1
3	67014	2904	1
3	67116	2908	1
3	67220	2912	1
3	67322	2916	1
3	67373	2920	1
3	67478	2924	1
3	67580	2928	1
3	67682	2932	1
3	67785	2936	1
3	67836	2940	1
3	67937	2944	1
3	68039	2948	1
3	68140	2952	1
3	68244	2956	1
3	68295	2960	1
3	68395	2964	1
3	68496	2968	1
3	68598	2972	1
3	68700	2976	1
3	68751	2980	1
3	68854	2984	1
3	68957	2988	1
3	69058	2992	1
3	69160	2996	1
3	69211	3000	1
3	69313	3004	1
3	69415	3008	1
3	69516	3012	1
3	69620	3016	1
3	69671	3020	1
3	69774	3024	1
3	69875	3028	1
3	69978	3032	1
3	70082	3036	1
3	70133	3040	1
3	70233	3044	1
3	70334	3048	1
3	70436	3052	1
3	70539	3056	1
3	70590	3060	1
3	70692	3064	1
3	70795	3068	1
3	70898	3072	1
3	71000	3076	1
3	71051	3080	1
3	71153	3084	1
3	71256	3088	1
3	71359	3092	1
3	71461	3096	1
3	71512	3100	1
3	71613	3104	1
3	71715	3108	1
3	71818	3112	1
3	71922	3116	1
3	71973	3120	1
3	72074	3124	1
3	72176	3128	1
3	72278	3132	1
3	72381	3136	1
3	72432	3140	1
3	72539	3144	1
3	72640	3148	1
3	72741	3152	1
3	72844	3156	1
3	72895	3160	1
3	72995	3164	1
3	73097	3168	1
3	73202	3172	1
3	73305	3176	1
3	73356	3180	1
3	73458	3184	1
3	73561	3188	1
3	73662	3192	1
3	73764	3196	1
3	73815	3200	1
3	73918	3204	1
3	74020	3208	1
3	74123	3212	1
3	74226	3216	1
3	74277	3220	1
3	74381	3224	1
3	74483	3228	1
3	74586	3232	1
3	74691	3236	1
3	74742	3240	1
3	74845	3244	1
3	74949	3248	1
3	75050	3252	1
3	75151	3256	1
3	75202	3260	1
3	75303	3264	1
3	75407	3268	1
3	75511	3272	1
3	75614	3276	1
3	75665	3280	1
3	75765	3284	1
3	75868	3288	1
3	75970	3292	1
3	76073	3296	1
3	76124	3300	1
3	76227	3304	1
3	76328	3308	1
3	76430	3312	1
3	76535	3316	1
3	76586	3320	1
3	76686	3324	1
3	76789	3328	1
3	76890	3332	1
3	76991	3336	1
3	77042	3340	1
3	77143	3344	1
3	77248	3348	1
3	77350	3352	1
3	77455	3356	1
3	77506	3360	1
3	77607	3364	1
3	77709	3368	1
3	77812	3372	1
3	77915	3376	1
3	77966	3380	1
3	78068	3384	1
3	78171	3388	1
3	78272	3392	1
3	78374	3396	1
3	78425	3400	1
3	78527	3404	1
3	78632	3408	1
3	78735	3412	1
3	78836	3416	1
3	78887	3420	1
3	78990	3424	1
3	79093	3428	1
3	79195	3432	1
3	79299	3436	1
3	79350	3440	1
3	79450	3444	1
3	79551	3448	1
3	79653	3452	1
3	79756	3456	1
3	79807	3460	1
3	79908	3464	1
3	80010	3468	1
3	80115	3472	1
3	80216	3476	1
3	80267	3480	1
3	80367	3484	1
3	80470	3488	1
3	80572	3492	1
3	80674	3496	1
3	80725	3500	1
3	80825	3504	1
3	80927	3508	1
3	81032	3512	1
3	81134	3516	1
3	81185	3520	1
3	81287	3524	1
3	81390	3528	1
3	81493	3532	1
3	81596	3536	1
3	81647	3540	1
3	81749	3544	1
3	81852	3548	1
3	81956	3552	1
3	82059	3556	1
3	82110	3560	1
3	82210	3564	1
3	82313	3568	1
3	82415	3572	1
3	82517	3576	1
3	82568	3580	1
3	82670	3584	1
3	82773	3588	1
3	82874	3592	1
3	82975	3596	1
3	83026	3600	1
4	5	4	1
4	119	8	1
4	221	12	1
4	334	16	1
4	385	20	1
4	494	24	1
4	600	28	1
4	708	32	1
4	813	36	1
4	864	40	1
4	966	44	1
4	1074	48	1
4	1180	52	1
4	1290	56	1
4	1341	60	1
4	1448	64	1
4	1553	68	1
4	1659	72	1
4	1762	76	1
4	1813	80	1
4	1920	84	1
4	2023	88	1
4	2128	92	1
4	2233	96	1
4	2284	100	1
4	2388	104	1
4	2500	108	1
4	2605	112	1
4	2708	116	1
4	2759	120	1
4	2866	124	1
4	2969	128	1
4	3074	132	1
4	3177	136	1
4	3228	140	1
4	3330	144	1
4	3439	148	1
4	3544	152	1
4	3650	156	1
4	3701	160	1
4	3804	164	1
4	3910	168	1
4	4014	172	1
4	4118	176	1
4	4169	180	1
4	4274	184	1
4	4378	188	1
4	4480	192	1
4	4584	196	1
4	4635	200	1
4	4736	204	1
4	4840	208	1
4	4943	212	1
4	5047	216	1
4	5098	220	1
4	5200	224	1
4	5305	228	1
4	5406	232	1
4	5509	236	1
4	5560	240	1
4	5664	244	1
4	5766	248	1
4	5868	252	1
4	5970	256	1
4	6021	260	1
4	6126	264	1
4	6231	268	1
4	6336	272	1
4	6438	276	1
4	6489	280	1
4	6591	284	1
4	6693	288	1
4	6797	292	1
4	6899	296	1
4	6950	300	1
4	7052	304	1
4	7159	308	1
4	7265	312	1
4	7369	316	1
4	7420	320	1
4	7522	324	1
4	7624	328	1
4	7728	332	1
4	7831	336	1
4	7882	340	1
4	7983	344	1
4	8090	348	1
4	8193	352	1
4	8295	356	1
4	8346	360	1
4	8451	364	1
4	8552	368	1
4	8656	372	1
4	8760	376	1
4	8811	380	1
4	8914	384	1
4	9019	388	1
4	9120	392	1
4	9225	396	1
4	9276	400	1
4	9376	404	1
4	9479	408	1
4	9582	412	1
4	9685	416	1
4	9736	420	1
4	9839	424	1
4	9941	428	1
4	10046	432	1
4	10147	436	1
4	10198	440	1
4	10299	444	1
4	10403	448	1
4	10506	452	1
4	10610	456	1
4	10661	460	1
4	10763	464	1
4	10864	468	1
4	10965	472	1
4	11070	476	1
4	11121	480	1
4	11222	484	1
4	11326	488	1
4	11427	492	1
4	11528	496	1
4	11579	500	1
4	11679	504	1
4	11781	508	1
4	11883	512	1
4	11986	516	1
4	12037	520	1
4	12137	524	1
4	12239	528	1
4	12345	532	1
4	12446	536	1
4	12497	540	1
4	12599	544	1
4	12701	548	1
4	12803	552	1
4	12906	556	1
4	12957	560	1
4	13059	564	1
4	13161	568	1
4	13264	572	1
4	13367	576	1
4	13418	580	1
4	13525	584	1
4	13626	588	1
4	13728	592	1
4	13832	596	1
4	13883	600	1
4	13984	604	1
4	14089	608	1
4	14193	612	1
4	14294	616	1
4	14345	620	1
4	14446	624	1
4	14551	628	1
4	14653	632	1
4	14756	636	1
4	14807	640	1
4	14910	644	1
4	15011	648	1
4	15113	652	1
4	15218	656	1
4	15269	660	1
4	15371	664	1
4	15473	668	1
4	15580	672	1
4	15685	676	1
4	15736	680	1
4	15837	684	1
4	15943	688	1
4	16046	692	1
4	16150	696	1
4	16201	700	1
4	16305	704	1
4	16407	708	1
4	16509	712	1
4	16610	716	1
4	16661	720	1
4	16761	724	1
4	16865	728	1
4	16966	732	1
4	17067	736	1
4	17118	740	1
4	17218	744	1
4	17319	748	1
4	17423	752	1
4	17526	756	1
4	17577	760	1
4	17680	764	1
4	17784	768	1
4	17886	772	1
4	17990	776	1
4	18041	780	1
4	18143	784	1
4	18244	788	1
4	18345	792	1
4	18446	796	1
4	18497	800	1
4	18598	804	1
4	18702	808	1
4	18805	812	1
4	18909	816	1
4	18960	820	1
4	19061	824	1
4	19163	828	1
4	19266	832	1
4	19369	836	1
4	19420	840	1
4	19522	844	1
4	19625	848	1
4	19726	852	1
4	19827	856	1
4	19878	860	1
4	19979	864	1
4	20082	868	1
4	20185	872	1
4	20288	876	1
4	20339	880	1
4	20442	884	1
4	20544	888	1
4	20649	892	1
4	20751	896	1
4	20802	900	1
4	20903	904	1
4	21005	908	1
4	21107	912	1
4	21208	916	1
4	21259	920	1
4	21361	924	1
4	21463	928	1
4	21565	932	1
4	21669	936	1
4	21720	940	1
4	21824	944	1
4	21926	948	1
4	22031	952	1
4	22135	956	1
4	22186	960	1
4	22288	964	1
4	22390	968	1
4	22493	972	1
4	22597	976	1
4	22648	980	1
4	22748	984	1
4	22850	988	1
4	22953	992	1
4	23057	996	1
4	23108	1000	1
4	23209	1004	1
4	23314	1008	1
4	23418	1012	1
4	23521	1016	1
4	23572	1020	1
4	23674	1024	1
4	23776	1028	1
4	23879	1032	1
4	23982	1036	1
4	24033	1040	1
4	24136	1044	1
4	24237	1048	1
4	24339	1052	1
4	24442	1056	1
4	24493	1060	1
4	24595	1064	1
4	24701	1068	1
4	24806	1072	1
4	24908	1076	1
4	24959	1080	1
4	25061	1084	1
4	25164	1088	1
4	25268	1092	1
4	25371	1096	1
4	25422	1100	1
4	25524	1104	1
4	25626	1108	1
4	25729	1112	1
4	25832	1116	1
4	25883	1120	1
4	25987	1124	1
4	26091	1128	1
4	26194	1132	1
4	26295	1136	1
4	26346	1140	1
4	26446	1144	1
4	26549	1148	1
4	26653	1152	1
4	26754	1156	1
4	26805	1160	1
4	26909	1164	1
4	27010	1168	1
4	27111	1172	1
4	27213	1176	1
4	27264	1180	1
4	27365	1184	1
4	27466	1188	1
4	27569	1192	1
4	27671	1196	1
4	27722	1200	1
4	27825	1204	1
4	27928	1208	1
4	28031	1212	1
4	28134	1216	1
4	28185	1220	1
4	28286	1224	1
4	28389	1228	1
4	28493	1232	1
4	28595	1236	1
4	28646	1240	1
4	28748	1244	1
4	28852	1248	1
4	28953	1252	1
4	29054	1256	1
4	29105	1260	1
4	29205	1264	1
4	29308	1268	1
4	29412	1272	1
4	29514	1276	1
4	29565	1280	1
4	29667	1284	1
4	29770	1288	1
4	29872	1292	1
4	29977	1296	1
4	30028	1300	1
4	30130	1304	1
4	30234	1308	1
4	30336	1312	1
4	30440	1316	1
4	30491	1320	1
4	30591	1324	1
4	30692	1328	1
4	30793	1332	1
4	30894	1336	1
4	30945	1340	1
4	31047	1344	1
4	31149	1348	1
4	31254	1352	1
4	31356	1356	1
4	31407	1360	1
4	31508	1364	1
4	31609	1368	1
4	31711	1372	1
4	31813	1376	1
4	31864	1380	1
4	31966	1384	1
4	32068	1388	1
4	32171	1392	1
4	32276	1396	1
4	32327	1400	1
4	32428	1404	1
4	32531	1408	1
4	32633	1412	1
4	32735	1416	1
4	32786	1420	1
4	32888	1424	1
4	32993	1428	1
4	33097	1432	1
4	33199	1436	1
4	33250	1440	1
4	33353	1444	1
4	33455	1448	1
4	33561	1452	1
4	33663	1456	1
4	33714	1460	1
4	33816	1464	1
4	33920	1468	1
4	34025	1472	1
4	34127	1476	1
4	34178	1480	1
4	34280	1484	1
4	34384	1488	1
4	34486	1492	1
4	34588	1496	1
4	34639	1500	1
4	34739	1504	1
4	34843	1508	1
4	34946	1512	1
4	35048	1516	1
4	35099	1520	1
4	35203	1524	1
4	35304	1528	1
4	35406	1532	1
4	35511	1536	1
4	35562	1540	1
4	35662	1544	1
4	35764	1548	1
4	35869	1552	1
4	35972	1556	1
4	36023	1560	1
4	36126	1564	1
4	36228	1568	1
4	36331	1572	1
4	36435	1576	1
4	36486	1580	1
4	36586	1584	1
4	36689	1588	1
4	36790	1592	1
4	36894	1596	1
4	36945	1600	1
4	37046	1604	1
4	37149	1608	1
4	37251	1612	1
4	37353	1616	1
4	37404	1620	1
4	37507	1624	1
4	37610	1628	1
4	37713	1632	1
4	37814	1636	1
4	37865	1640	1
4	37966	1644	1
4	38070	1648	1
4	38171	1652	1
4	38273	1656	1
4	38324	1660	1
4	38425	1664	1
4	38526	1668	1
4	38631	1672	1
4	38733	1676	1
4	38784	1680	1
4	38888	1684	1
4	38990	1688	1
4	39095	1692	1
4	39196	1696	1
4	39247	1700	1
4	39350	1704	1
4	39452	1708	1
4	39555	1712	1
4	39660	1716	1
4	39711	1720	1
4	39812	1724	1
4	39917	1728	1
4	40021	1732	1
4	40123	1736	1
4	40174	1740	1
4	40276	1744	1
4	40379	1748	1
4	40484	1752	1
4	40588	1756	1
4	40639	1760	1
4	40740	1764	1
4	40842	1768	1
4	40944	1772	1
4	41047	1776	1
4	41098	1780	1
4	41200	1784	1
4	41305	1788	1
4	41407	1792	1
4	41510	1796	1
4	41561	1800	1
4	41665	1804	1
4	41768	1808	1
4	41873	1812	1
4	41976	1816	1
4	42027	1820	1
4	42128	1824	1
4	42233	1828	1
4	42336	1832	1
4	42438	1836	1
4	42489	1840	1
4	42590	1844	1
4	42691	1848	1
4	42794	1852	1
4	42896	1856	1
4	42947	1860	1
4	43049	1864	1
4	43154	1868	1
4	43255	1872	1
4	43356	1876	1
4	43407	1880	1
4	43507	1884	1
4	43609	1888	1
4	43714	1892	1
4	43815	1896	1
4	43866	1900	1
4	43968	1904	1
4	44070	1908	1
4	44174	1912	1
[...]
103	42367	1832	1
103	42469	1836	1
103	42520	1840	1
103	42621	1844	1
103	42722	1848	1
103	42825	1852	1
103	42927	1856	1
103	42978	1860	1
103	43080	1864	1
103	43185	1868	1
103	43286	1872	1
103	43387	1876	1
103	43438	1880	1
103	43538	1884	1
103	43640	1888	1
103	43745	1892	1
103	43846	1896	1
103	43897	1900	1
103	43999	1904	1
103	44101	1908	1
103	44205	1912	1
103	44308	1916	1
103	44359	1920	1
103	44459	1924	1
103	44561	1928	1
103	44664	1932	1
103	44767	1936	1
103	44818	1940	1
103	44923	1944	1
103	45026	1948	1
103	45129	1952	1
103	45231	1956	1
103	45282	1960	1
103	45384	1964	1
103	45488	1968	1
103	45590	1972	1
103	45694	1976	1
103	45745	1980	1
103	45846	1984	1
103	45950	1988	1
103	46055	1992	1
103	46158	1996	1
103	46209	2000	1
103	46309	2004	1
103	46411	2008	1
103	46516	2012	1
103	46618	2016	1
103	46669	2020	1
103	46770	2024	1
103	46872	2028	1
103	46976	2032	1
103	47079	2036	1
103	47130	2040	1
103	47230	2044	1
103	47331	2048	1
103	47433	2052	1
103	47536	2056	1
103	47587	2060	1
103	47690	2064	1
103	47793	2068	1
103	47894	2072	1
103	47997	2076	1
103	48048	2080	1
103	48151	2084	1
103	48252	2088	1
103	48355	2092	1
103	48457	2096	1
103	48508	2100	1
103	48609	2104	1
103	48711	2108	1
103	48815	2112	1
103	48917	2116	1
103	48968	2120	1
103	49073	2124	1
103	49176	2128	1
103	49278	2132	1
103	49382	2136	1
103	49433	2140	1
103	49536	2144	1
103	49639	2148	1
103	49742	2152	1
103	49843	2156	1
103	49894	2160	1
103	49995	2164	1
103	50099	2168	1
103	50203	2172	1
103	50304	2176	1
103	50355	2180	1
103	50455	2184	1
103	50557	2188	1
103	50660	2192	1
103	50765	2196	1
103	50816	2200	1
103	50919	2204	1
103	51021	2208	1
103	51124	2212	1
103	51231	2216	1
103	51282	2220	1
103	51384	2224	1
103	51487	2228	1
103	51588	2232	1
103	51690	2236	1
103	51741	2240	1
103	51842	2244	1
103	51945	2248	1
103	52049	2252	1
103	52150	2256	1
103	52201	2260	1
103	52301	2264	1
103	52402	2268	1
103	52503	2272	1
103	52607	2276	1
103	52658	2280	1
103	52759	2284	1
103	52865	2288	1
103	52966	2292	1
103	53069	2296	1
103	53120	2300	1
103	53220	2304	1
103	53321	2308	1
103	53423	2312	1
103	53527	2316	1
103	53578	2320	1
103	53681	2324	1
103	53783	2328	1
103	53885	2332	1
103	53986	2336	1
103	54037	2340	1
103	54137	2344	1
103	54241	2348	1
103	54342	2352	1
103	54444	2356	1
103	54495	2360	1
103	54597	2364	1
103	54701	2368	1
103	54803	2372	1
103	54906	2376	1
103	54957	2380	1
103	55060	2384	1
103	55162	2388	1
103	55265	2392	1
103	55368	2396	1
103	55419	2400	1
103	55521	2404	1
103	55626	2408	1
103	55728	2412	1
103	55832	2416	1
103	55883	2420	1
103	55983	2424	1
103	56086	2428	1
103	56188	2432	1
103	56291	2436	1
103	56342	2440	1
103	56444	2444	1
103	56547	2448	1
103	56651	2452	1
103	56754	2456	1
103	56805	2460	1
103	56907	2464	1
103	57008	2468	1
103	57109	2472	1
103	57211	2476	1
103	57262	2480	1
103	57366	2484	1
103	57468	2488	1
103	57571	2492	1
103	57675	2496	1
103	57726	2500	1
103	57829	2504	1
103	57932	2508	1
103	58033	2512	1
103	58134	2516	1
103	58185	2520	1
103	58285	2524	1
103	58389	2528	1
103	58493	2532	1
103	58596	2536	1
103	58647	2540	1
103	58748	2544	1
103	58851	2548	1
103	58956	2552	1
103	59058	2556	1
103	59109	2560	1
103	59211	2564	1
103	59314	2568	1
103	59417	2572	1
103	59520	2576	1
103	59571	2580	1
103	59673	2584	1
103	59776	2588	1
103	59880	2592	1
103	59982	2596	1
103	60033	2600	1
103	60137	2604	1
103	60239	2608	1
103	60341	2612	1
103	60443	2616	1
103	60494	2620	1
103	60596	2624	1
103	60699	2628	1
103	60803	2632	1
103	60905	2636	1
103	60956	2640	1
103	61059	2644	1
103	61162	2648	1
103	61264	2652	1
103	61366	2656	1
103	61417	2660	1
103	61518	2664	1
103	61621	2668	1
103	61726	2672	1
103	61828	2676	1
103	61879	2680	1
103	61980	2684	1
103	62083	2688	1
103	62186	2692	1
103	62289	2696	1
103	62340	2700	1
103	62440	2704	1
103	62541	2708	1
103	62643	2712	1
103	62746	2716	1
103	62797	2720	1
103	62899	2724	1
103	63005	2728	1
103	63106	2732	1
103	63209	2736	1
103	63260	2740	1
103	63361	2744	1
103	63464	2748	1
103	63567	2752	1
103	63671	2756	1
103	63722	2760	1
103	63827	2764	1
103	63928	2768	1
103	64030	2772	1
103	64132	2776	1
103	64183	2780	1
103	64285	2784	1
103	64387	2788	1
103	64490	2792	1
103	64593	2796	1
103	64644	2800	1
103	64746	2804	1
103	64849	2808	1
103	64956	2812	1
103	65057	2816	1
103	65108	2820	1
103	65209	2824	1
103	65312	2828	1
103	65414	2832	1
103	65515	2836	1
103	65566	2840	1
103	65667	2844	1
103	65772	2848	1
103	65875	2852	1
103	65976	2856	1
103	66027	2860	1
103	66127	2864	1
103	66231	2868	1
103	66332	2872	1
103	66437	2876	1
103	66488	2880	1
103	66588	2884	1
103	66689	2888	1
103	66791	2892	1
103	66894	2896	1
103	66945	2900	1
103	67046	2904	1
103	67148	2908	1
103	67252	2912	1
103	67354	2916	1
103	67405	2920	1
103	67510	2924	1
103	67612	2928	1
103	67714	2932	1
103	67817	2936	1
103	67868	2940	1
103	67969	2944	1
103	68071	2948	1
103	68172	2952	1
103	68276	2956	1
103	68327	2960	1
103	68427	2964	1
103	68528	2968	1
103	68630	2972	1
103	68732	2976	1
103	68783	2980	1
103	68886	2984	1
103	68989	2988	1
103	69090	2992	1
103	69192	2996	1
103	69243	3000	1
103	69345	3004	1
103	69447	3008	1
103	69548	3012	1
103	69652	3016	1
103	69703	3020	1
103	69806	3024	1
103	69907	3028	1
103	70010	3032	1
103	70114	3036	1
103	70165	3040	1
103	70265	3044	1
103	70366	3048	1
103	70468	3052	1
103	70571	3056	1
103	70622	3060	1
103	70724	3064	1
103	70827	3068	1
103	70930	3072	1
103	71032	3076	1
103	71083	3080	1
103	71185	3084	1
103	71288	3088	1
103	71391	3092	1
103	71493	3096	1
103	71544	3100	1
103	71645	3104	1
103	71747	3108	1
103	71850	3112	1
103	71954	3116	1
103	72005	3120	1
103	72106	3124	1
103	72208	3128	1
103	72310	3132	1
103	72413	3136	1
103	72464	3140	1
103	72571	3144	1
103	72672	3148	1
103	72773	3152	1
103	72876	3156	1
103	72927	3160	1
103	73027	3164	1
103	73129	3168	1
103	73234	3172	1
103	73337	3176	1
103	73388	3180	1
103	73490	3184	1
103	73593	3188	1
103	73694	3192	1
103	73796	3196	1
103	73847	3200	1
103	73950	3204	1
103	74052	3208	1
103	74155	3212	1
103	74258	3216	1
103	74309	3220	1
103	74413	3224	1
103	74515	3228	1
103	74618	3232	1
103	74723	3236	1
103	74774	3240	1
103	74877	3244	1
103	74981	3248	1
103	75082	3252	1
103	75183	3256	1
103	75234	3260	1
103	75335	3264	1
103	75439	3268	1
103	75543	3272	1
103	75646	3276	1
103	75697	3280	1
103	75797	3284	1
103	75900	3288	1
103	76002	3292	1
103	76105	3296	1
103	76156	3300	1
103	76259	3304	1
103	76360	3308	1
103	76462	3312	1
103	76567	3316	1
103	76618	3320	1
103	76718	3324	1
103	76821	3328	1
103	76922	3332	1
103	77023	3336	1
103	77074	3340	1
103	77175	3344	1
103	77280	3348	1
103	77382	3352	1
103	77487	3356	1
103	77538	3360	1
103	77639	3364	1
103	77741	3368	1
103	77844	3372	1
103	77947	3376	1
103	77998	3380	1
103	78100	3384	1
103	78203	3388	1
103	78304	3392	1
103	78406	3396	1
103	78457	3400	1
103	78559	3404	1
103	78664	3408	1
103	78767	3412	1
103	78868	3416	1
103	78919	3420	1
103	79022	3424	1
103	79125	3428	1
103	79227	3432	1
103	79331	3436	1
103	79382	3440	1
103	79482	3444	1
103	79583	3448	1
103	79685	3452	1
103	79788	3456	1
103	79839	3460	1
103	79940	3464	1
103	80042	3468	1
103	80147	3472	1
103	80248	3476	1
103	80299	3480	1
103	80399	3484	1
103	80502	3488	1
103	80604	3492	1
103	80706	3496	1
103	80757	3500	1
103	80857	3504	1
103	80959	3508	1
103	81064	3512	1
103	81166	3516	1
103	81217	3520	1
103	81319	3524	1
103	81422	3528	1
103	81525	3532	1
103	81628	3536	1
103	81679	3540	1
103	81781	3544	1
103	81884	3548	1
103	81988	3552	1
103	82091	3556	1
103	82142	3560	1
103	82242	3564	1
103	82345	3568	1
103	82447	3572	1
103	82549	3576	1
103	82600	3580	1
103	82702	3584	1
103	82805	3588	1
103	82906	3592	1
103	83007	3596	1
103	83058	3600	1
104	4528	195	1
104	4784	205	1
104	5814	250	1
104	7672	330	1
104	10347	445	1
105	4528	195	191
105	4784	205	197
105	5814	250	238
105	7672	330	314
105	10347	445	425
106	4528	195	1
106	4784	205	1
106	5814	250	1
106	7672	330	1
106	10347	445	1
107	6068	260	1
107	23257	1005	1
107	25109	1085	1
107	29818	1290	1
108	6068	260	256
108	23257	1005	997
108	25109	1085	1073
108	29818	1290	1274
109	6068	260	1
109	23257	1005	1
109	25109	1085	1
109	29818	1290	1
110	6536	280	1
110	39603	1715	1
110	41248	1785	1
110	78576	3405	1
110	80621	3495	1
111	6536	280	276
111	39603	1715	1707
111	41248	1785	1773
111	78576	3405	3389
111	80621	3495	3475
112	6536	280	1
112	39603	1715	1
112	41248	1785	1
112	78576	3405	1
112	80621	3495	1
113	6639	285	1
114	6639	285	281
115	6639	285	1
116	6997	300	1
116	28437	1230	1
116	28693	1240	1
116	28796	1245	1
116	29715	1285	1
116	34534	1495	1
116	38831	1680	1
116	39860	1725	1
116	41145	1780	1
116	48984	2120	1
117	6997	300	296
117	28437	1230	1222
117	28693	1240	1228
117	28796	1245	1229
117	29715	1285	1265
117	34534	1495	1191
117	38831	1680	448
117	39860	1725	481
117	41145	1780	532
117	48984	2120	832
118	6997	300	1
118	28437	1230	1
118	28693	1240	1
118	28796	1245	1
118	29715	1285	1
118	34534	1495	1
118	38831	1680	1
118	39860	1725	1
118	41145	1780	1
118	48984	2120	1
119	7100	305	1
119	15521	670	1
119	15885	685	1
119	21511	930	1
119	21974	950	1
119	23824	1030	1
119	24387	1055	1
120	7100	305	301
120	15521	670	662
120	15885	685	673
120	21511	930	914
120	21974	950	930
120	23824	1030	722
120	24387	1055	383
121	7100	305	1
121	15521	670	1
121	15885	685	1
121	21511	930	1
121	21974	950	1
121	23824	1030	1
121	24387	1055	1
122	8393	360	1
122	9989	430	1
122	13312	575	1
122	36379	1575	1
122	38014	1645	1
122	40221	1740	1
122	42994	1860	1
122	54614	2365	1
122	54973	2380	1
122	56461	2445	1
122	56564	2450	1
122	59228	2565	1
122	62660	2715	1
122	71560	3100	1
122	73863	3200	1
123	8393	360	356
123	9989	430	422
123	13312	575	563
123	36379	1575	1559
123	38014	1645	1625
123	40221	1740	1376
123	42994	1860	1428
123	54614	2365	1789
123	54973	2380	804
123	56461	2445	797
123	56564	2450	706
123	59228	2565	701
123	62660	2715	347
123	71560	3100	716
123	73863	3200	752
124	8393	360	1
124	9989	430	1
124	13312	575	1
124	36379	1575	1
124	38014	1645	1
124	40221	1740	1
124	42994	1860	1
124	54614	2365	1
124	54973	2380	1
124	56461	2445	1
124	56564	2450	1
124	59228	2565	1
124	62660	2715	1
124	71560	3100	1
124	73863	3200	1
125	11270	485	1
125	20130	870	1
125	25006	1080	1
125	27769	1200	1
125	28334	1225	1
125	32219	1395	1
125	38371	1660	1
125	47450	2055	1
125	48524	2100	1
125	70485	3055	1
125	70638	3060	1
125	73146	3170	1
125	75352	3265	1
125	81233	3520	1
125	81901	3550	1
126	11270	485	481
126	20130	870	862
126	25006	1080	1068
126	27769	1200	1184
126	28334	1225	1205
126	32219	1395	907
126	38371	1660	788
126	47450	2055	971
126	48524	2100	896
126	70485	3055	1827
126	70638	3060	1664
126	73146	3170	1506
126	75352	3265	1209
126	81233	3520	1416
126	81901	3550	494
127	11270	485	1
127	20130	870	1
127	25006	1080	1
127	27769	1200	1
127	28334	1225	1
127	32219	1395	1
127	38371	1660	1
127	47450	2055	1
127	48524	2100	1
127	70485	3055	1
127	70638	3060	1
127	73146	3170	1
127	75352	3265	1
127	81233	3520	1
127	81901	3550	1
128	12287	530	1
128	37094	1605	1
128	37197	1610	1
128	39500	1710	1
128	40324	1745	1
129	12287	530	526
129	37094	1605	1597
129	37197	1610	1598
129	39500	1710	1694
129	40324	1745	1725
130	12287	530	1
130	37094	1605	1
130	37197	1610	1
130	39500	1710	1
130	40324	1745	1
131	12749	550	1
131	14701	635	1
131	19109	825	1
131	20027	865	1
131	20233	875	1
131	20386	880	1
131	20592	890	1
131	25777	1115	1
131	31197	1350	1
131	34225	1480	1
131	40788	1765	1
131	59587	2580	1
132	12749	550	546
132	14701	635	627
132	19109	825	813
132	20027	865	849
132	20233	875	855
132	20386	880	328
132	20592	890	254
132	25777	1115	287
132	31197	1350	482
132	34225	1480	604
132	40788	1765	881
132	59587	2580	1688
133	12749	550	1
133	14701	635	1
133	19109	825	1
133	20027	865	1
133	20233	875	1
133	20386	880	1
133	20592	890	1
133	25777	1115	1
133	31197	1350	1
133	34225	1480	1
133	40788	1765	1
133	59587	2580	1
134	13465	580	1
134	13776	595	1
135	13465	580	576
135	13776	595	587
136	13465	580	1
136	13776	595	1
137	14032	605	1
137	63378	2745	1
137	63481	2750	1
137	64404	2790	1
137	67165	2910	1
138	14032	605	601
138	63378	2745	2737
138	63481	2750	2738
138	64404	2790	2774
138	67165	2910	2890
139	14032	605	1
139	63378	2745	1
139	63481	2750	1
139	64404	2790	1
139	67165	2910	1
140	14494	625	1
140	18646	805	1
140	62916	2725	1
141	14494	625	621
141	18646	805	797
141	62916	2725	2713
142	14494	625	1
142	18646	805	1
142	62916	2725	1
143	14854	640	1
143	17934	775	1
143	20849	900	1
143	33503	1450	1
143	35812	1550	1
143	36276	1570	1
143	40427	1750	1
143	41455	1795	1
143	54820	2375	1
143	59125	2560	1
143	60256	2610	1
143	61281	2655	1
143	64047	2775	1
143	64660	2800	1
143	67986	2945	1
143	70844	3070	1
143	72123	3125	1
144	14854	640	636
144	17934	775	767
144	20849	900	888
144	33503	1450	1434
144	35812	1550	1530
144	36276	1570	926
144	40427	1750	974
144	41455	1795	891
144	54820	2375	923
144	59125	2560	1008
144	60256	2610	1038
144	61281	2655	903
144	64047	2775	979
144	64660	2800	424
144	67986	2945	381
144	70844	3070	458
144	72123	3125	469
145	14854	640	1
145	17934	775	1
145	20849	900	1
145	33503	1450	1
145	35812	1550	1
145	36276	1570	1
145	40427	1750	1
145	41455	1795	1
145	54820	2375	1
145	59125	2560	1
145	60256	2610	1
145	61281	2655	1
145	64047	2775	1
145	64660	2800	1
145	67986	2945	1
145	70844	3070	1
145	72123	3125	1
146	15161	655	1
146	21053	910	1
146	25674	1110	1
146	25930	1120	1
146	29612	1280	1
146	32116	1390	1
146	32833	1420	1
146	37451	1620	1
146	76019	3295	1
146	76172	3300	1
147	15161	655	651
147	21053	910	902
147	25674	1110	1098
147	25930	1120	1104
147	29612	1280	1260
147	32116	1390	734
147	32833	1420	508
147	37451	1620	508
147	76019	3295	2171
147	76172	3300	2016
148	15161	655	1
148	21053	910	1
148	25674	1110	1
148	25930	1120	1
148	29612	1280	1
148	32116	1390	1
148	32833	1420	1
148	37451	1620	1
148	76019	3295	1
148	76172	3300	1
149	16455	710	1
150	16455	710	706
151	16455	710	1
152	22438	970	1
152	22898	990	1
152	23001	995	1
152	24080	1040	1
152	24540	1060	1
152	27311	1180	1
152	31454	1360	1
152	32936	1425	1
152	35146	1520	1
152	35454	1535	1
152	47603	2060	1
152	61638	2670	1
152	61895	2680	1
153	22438	970	966
153	22898	990	982
153	23001	995	983
153	24080	1040	1024
153	24540	1060	1040
153	27311	1180	208
153	31454	1360	368
153	32936	1425	429
153	35146	1520	476
153	35454	1535	471
153	47603	2060	876
153	61638	2670	1306
153	61895	2680	1252
154	22438	970	1
154	22898	990	1
154	23001	995	1
154	24080	1040	1
154	24540	1060	1
154	27311	1180	1
154	31454	1360	1
154	32936	1425	1
154	35146	1520	1
154	35454	1535	1
154	47603	2060	1
154	61638	2670	1
154	61895	2680	1
155	22541	975	1
155	23927	1035	1
155	24643	1065	1
155	44578	1930	1
155	44681	1935	1
155	45298	1960	1
155	46685	2020	1
155	48728	2110	1
155	50574	2190	1
155	55282	2395	1
155	55538	2405	1
155	55745	2415	1
155	59434	2575	1
155	59793	2590	1
155	60972	2640	1
155	62813	2720	1
155	64507	2795	1
155	64763	2805	1
155	65329	2830	1
155	65684	2845	1
155	66808	2895	1
155	67421	2920	1
155	68647	2975	1
155	79855	3460	1
155	81695	3540	1
156	22541	975	971
156	23927	1035	1027
156	24643	1065	1053
156	44578	1930	1914
156	44681	1935	1915
156	45298	1960	984
156	46685	2020	984
156	48728	2110	1042
156	50574	2190	258
156	55282	2395	459
156	55538	2405	441
156	55745	2415	391
156	59434	2575	463
156	59793	2590	398
156	60972	2640	244
156	62813	2720	312
156	64507	2795	379
156	64763	2805	229
156	65329	2830	238
156	65684	2845	201
156	66808	2895	171
156	67421	2920	124
156	68647	2975	167
156	79855	3460	628
156	81695	3540	692
157	22541	975	1
157	23927	1035	1
157	24643	1065	1
157	44578	1930	1
157	44681	1935	1
157	45298	1960	1
157	46685	2020	1
157	48728	2110	1
157	50574	2190	1
157	55282	2395	1
157	55538	2405	1
157	55745	2415	1
157	59434	2575	1
157	59793	2590	1
157	60972	2640	1
157	62813	2720	1
157	64507	2795	1
157	64763	2805	1
157	65329	2830	1
157	65684	2845	1
157	66808	2895	1
157	67421	2920	1
157	68647	2975	1
157	79855	3460	1
157	81695	3540	1
158	25212	1090	1
158	56205	2435	1
158	57278	2480	1
158	60510	2620	1
158	60716	2630	1
159	25212	1090	1086
159	56205	2435	2427
159	57278	2480	2468
159	60510	2620	2604
159	60716	2630	2610
160	25212	1090	1
160	56205	2435	1
160	57278	2480	1
160	60510	2620	1
160	60716	2630	1
161	30384	1315	1
161	31759	1375	1
161	32579	1410	1
161	74172	3215	1
161	77192	3345	1
161	80059	3470	1
161	81542	3535	1
162	30384	1315	1311
162	31759	1375	1367
162	32579	1410	1398
162	74172	3215	3199
162	77192	3345	3325
162	80059	3470	2154
162	81542	3535	2159
163	30384	1315	1
163	31759	1375	1
163	32579	1410	1
163	74172	3215	1
163	77192	3345	1
163	80059	3470	1
163	81542	3535	1
164	32476	1405	1
164	33297	1440	1
164	57588	2495	1
164	67629	2930	1
164	69259	3000	1
164	72327	3135	1
164	76479	3315	1
165	32476	1405	1401
165	33297	1440	1432
165	57588	2495	2483
165	67629	2930	2914
165	69259	3000	2980
165	72327	3135	1727
165	76479	3315	1871
166	32476	1405	1
166	33297	1440	1
166	57588	2495	1
166	67629	2930	1
166	69259	3000	1
166	72327	3135	1
166	76479	3315	1
167	33761	1460	1
167	33864	1465	1
167	42176	1825	1
167	43657	1890	1
167	45863	1985	1
167	46428	2010	1
167	46889	2030	1
167	51141	2215	1
167	57485	2490	1
167	59331	2570	1
167	61535	2665	1
167	63584	2755	1
167	64866	2810	1
167	66961	2900	1
167	69362	3005	1
167	70947	3075	1
167	71867	3115	1
167	72480	3140	1
167	74532	3230	1
167	80976	3510	1
167	81798	3545	1
167	82464	3575	1
168	33761	1460	1456
168	33864	1465	1457
168	42176	1825	1813
168	43657	1890	1874
168	45863	1985	1965
168	46428	2010	546
168	46889	2030	562
168	51141	2215	387
168	57485	2490	598
168	59331	2570	582
168	61535	2665	653
168	63584	2755	723
168	64866	2810	594
168	66961	2900	408
168	69362	3005	433
168	70947	3075	407
168	71867	3115	359
168	72480	3140	328
168	74532	3230	326
168	80976	3510	502
168	81798	3545	469
168	82464	3575	459
169	33761	1460	1
169	33864	1465	1
169	42176	1825	1
169	43657	1890	1
169	45863	1985	1
169	46428	2010	1
169	46889	2030	1
169	51141	2215	1
169	57485	2490	1
169	59331	2570	1
169	61535	2665	1
169	63584	2755	1
169	64866	2810	1
169	66961	2900	1
169	69362	3005	1
169	70947	3075	1
169	71867	3115	1
169	72480	3140	1
169	74532	3230	1
169	80976	3510	1
169	81798	3545	1
169	82464	3575	1
170	34328	1485	1
171	34328	1485	1481
172	34328	1485	1
173	39038	1690	1
173	41608	1800	1
173	42536	1840	1
173	43097	1865	1
173	44118	1910	1
173	54511	2360	1
173	58868	2550	1
173	59690	2585	1
173	60613	2625	1
173	74325	3220	1
174	39038	1690	1686
174	41608	1800	1792
174	42536	1840	1828
174	43097	1865	1849
174	44118	1910	1890
174	54511	2360	668
174	58868	2550	746
174	59690	2585	741
174	60613	2625	757
174	74325	3220	1308
175	39038	1690	1
175	41608	1800	1
175	42536	1840	1
175	43097	1865	1
175	44118	1910	1
175	54511	2360	1
175	58868	2550	1
175	59690	2585	1
175	60613	2625	1
175	74325	3220	1
176	40992	1775	1
177	40992	1775	1771
178	40992	1775	1
179	44834	1940	1
179	49295	2135	1
179	55179	2390	1
179	55435	2400	1
179	56358	2440	1
179	58765	2545	1
179	60049	2600	1
180	44834	1940	1936
180	49295	2135	2127
180	55179	2390	2378
180	55435	2400	2384
180	56358	2440	2420
180	58765	2545	601
180	60049	2600	464
181	44834	1940	1
181	49295	2135	1
181	55179	2390	1
181	55435	2400	1
181	56358	2440	1
181	58765	2545	1
181	60049	2600	1
182	45401	1965	1
182	45607	1975	1
183	45401	1965	1961
183	45607	1975	1967
184	45401	1965	1
184	45607	1975	1
185	50012	2165	1
185	50677	2195	1
185	53800	2330	1
185	81336	3525	1
186	50012	2165	2161
186	50677	2195	2187
186	53800	2330	2318
186	81336	3525	3509
187	50012	2165	1
187	50677	2195	1
187	53800	2330	1
187	81336	3525	1
188	51038	2210	1
188	51757	2240	1
188	52776	2285	1
188	53440	2315	1
188	74069	3210	1
188	74635	3235	1
189	51038	2210	2206
189	51757	2240	2232
189	52776	2285	2273
189	53440	2315	2299
189	74069	3210	3190
189	74635	3235	1023
190	51038	2210	1
190	51757	2240	1
190	52776	2285	1
190	53440	2315	1
190	74069	3210	1
190	74635	3235	1
191	65226	2825	1
191	70741	3065	1
191	77399	3355	1
191	77656	3365	1
191	78473	3400	1
191	79702	3455	1
191	81439	3530	1
192	65226	2825	2821
192	70741	3065	3057
192	77399	3355	3343
192	77656	3365	3349
192	78473	3400	3380
192	79702	3455	627
192	81439	3530	462
193	65226	2825	1
193	70741	3065	1
193	77399	3355	1
193	77656	3365	1
193	78473	3400	1
193	79702	3455	1
193	81439	3530	1
194	71764	3110	1
194	79244	3435	1
195	71764	3110	3106
195	79244	3435	3427
196	71764	3110	1
196	79244	3435	1

