version 2
run FourthVerification-3-20201214-15:19:43-220831
attr configname FourthVerification
attr datetime 20201214-15:19:43
attr experiment FourthVerification
attr inifile omnetpp.ini
attr iterationvars $0=0.8
attr iterationvarsf 0.8-
attr measurement $0=0.8
attr network slottedNetwork
attr processid 220831
attr repetition 0
attr replication #0
attr resultdir results
attr runnumber 3
attr seedset 3
param **.numTransmitters 50
param **.numChannels 1
param **.bufferSize 5
param **.sendProbability 0.8
param **.expMean 4s
param **.timeSlotSize 5s
param **.thresh 20s
param **.deterministicInterarrivalTime true
param **.numTransmitters 1
param **.numChannels 1
param **.bufferSize 5
param **.sendProbability 1
param **.expMean 5s
param **.timeSlotSize 5s
param **.thresh 20s
param **.deterministicInterarrivalTime false

vector 0 slottedNetwork.transmitters[0] numPacketCreated:vector ETV
attr source numPacketCreatedSignal
vector 1 slottedNetwork.transmitters[1] numPacketCreated:vector ETV
attr source numPacketCreatedSignal
vector 2 slottedNetwork.transmitters[2] numPacketCreated:vector ETV
attr source numPacketCreatedSignal
vector 3 slottedNetwork.transmitters[3] numPacketCreated:vector ETV
attr source numPacketCreatedSignal
vector 4 slottedNetwork.transmitters[4] numPacketCreated:vector ETV
attr source numPacketCreatedSignal
vector 5 slottedNetwork.transmitters[5] numPacketCreated:vector ETV
attr source numPacketCreatedSignal
vector 6 slottedNetwork.transmitters[6] numPacketCreated:vector ETV
attr source numPacketCreatedSignal
vector 7 slottedNetwork.transmitters[7] numPacketCreated:vector ETV
attr source numPacketCreatedSignal
vector 8 slottedNetwork.transmitters[8] numPacketCreated:vector ETV
attr source numPacketCreatedSignal
vector 9 slottedNetwork.transmitters[9] numPacketCreated:vector ETV
attr source numPacketCreatedSignal
vector 10 slottedNetwork.transmitters[10] numPacketCreated:vector ETV
attr source numPacketCreatedSignal
vector 11 slottedNetwork.transmitters[11] numPacketCreated:vector ETV
attr source numPacketCreatedSignal
vector 12 slottedNetwork.transmitters[12] numPacketCreated:vector ETV
attr source numPacketCreatedSignal
vector 13 slottedNetwork.transmitters[13] numPacketCreated:vector ETV
attr source numPacketCreatedSignal
vector 14 slottedNetwork.transmitters[14] numPacketCreated:vector ETV
attr source numPacketCreatedSignal
vector 15 slottedNetwork.transmitters[15] numPacketCreated:vector ETV
attr source numPacketCreatedSignal
vector 16 slottedNetwork.transmitters[16] numPacketCreated:vector ETV
attr source numPacketCreatedSignal
vector 17 slottedNetwork.transmitters[17] numPacketCreated:vector ETV
attr source numPacketCreatedSignal
vector 18 slottedNetwork.transmitters[18] numPacketCreated:vector ETV
attr source numPacketCreatedSignal
vector 19 slottedNetwork.transmitters[19] numPacketCreated:vector ETV
attr source numPacketCreatedSignal
vector 20 slottedNetwork.transmitters[20] numPacketCreated:vector ETV
attr source numPacketCreatedSignal
vector 21 slottedNetwork.transmitters[21] numPacketCreated:vector ETV
attr source numPacketCreatedSignal
vector 22 slottedNetwork.transmitters[22] numPacketCreated:vector ETV
attr source numPacketCreatedSignal
vector 23 slottedNetwork.transmitters[23] numPacketCreated:vector ETV
attr source numPacketCreatedSignal
vector 24 slottedNetwork.transmitters[24] numPacketCreated:vector ETV
attr source numPacketCreatedSignal
vector 25 slottedNetwork.transmitters[25] numPacketCreated:vector ETV
attr source numPacketCreatedSignal
vector 26 slottedNetwork.transmitters[26] numPacketCreated:vector ETV
attr source numPacketCreatedSignal
vector 27 slottedNetwork.transmitters[27] numPacketCreated:vector ETV
attr source numPacketCreatedSignal
vector 28 slottedNetwork.transmitters[28] numPacketCreated:vector ETV
attr source numPacketCreatedSignal
vector 29 slottedNetwork.transmitters[29] numPacketCreated:vector ETV
attr source numPacketCreatedSignal
vector 30 slottedNetwork.transmitters[30] numPacketCreated:vector ETV
attr source numPacketCreatedSignal
vector 31 slottedNetwork.transmitters[31] numPacketCreated:vector ETV
attr source numPacketCreatedSignal
vector 32 slottedNetwork.transmitters[32] numPacketCreated:vector ETV
attr source numPacketCreatedSignal
vector 33 slottedNetwork.transmitters[33] numPacketCreated:vector ETV
attr source numPacketCreatedSignal
vector 34 slottedNetwork.transmitters[34] numPacketCreated:vector ETV
attr source numPacketCreatedSignal
vector 35 slottedNetwork.transmitters[35] numPacketCreated:vector ETV
attr source numPacketCreatedSignal
vector 36 slottedNetwork.transmitters[36] numPacketCreated:vector ETV
attr source numPacketCreatedSignal
vector 37 slottedNetwork.transmitters[37] numPacketCreated:vector ETV
attr source numPacketCreatedSignal
vector 38 slottedNetwork.transmitters[38] numPacketCreated:vector ETV
attr source numPacketCreatedSignal
vector 39 slottedNetwork.transmitters[39] numPacketCreated:vector ETV
attr source numPacketCreatedSignal
vector 40 slottedNetwork.transmitters[40] numPacketCreated:vector ETV
attr source numPacketCreatedSignal
vector 41 slottedNetwork.transmitters[41] numPacketCreated:vector ETV
attr source numPacketCreatedSignal
vector 42 slottedNetwork.transmitters[42] numPacketCreated:vector ETV
attr source numPacketCreatedSignal
vector 43 slottedNetwork.transmitters[43] numPacketCreated:vector ETV
attr source numPacketCreatedSignal
vector 44 slottedNetwork.transmitters[44] numPacketCreated:vector ETV
attr source numPacketCreatedSignal
vector 45 slottedNetwork.transmitters[45] numPacketCreated:vector ETV
attr source numPacketCreatedSignal
vector 46 slottedNetwork.transmitters[46] numPacketCreated:vector ETV
attr source numPacketCreatedSignal
vector 47 slottedNetwork.transmitters[47] numPacketCreated:vector ETV
attr source numPacketCreatedSignal
vector 48 slottedNetwork.transmitters[48] numPacketCreated:vector ETV
attr source numPacketCreatedSignal
vector 49 slottedNetwork.transmitters[49] numPacketCreated:vector ETV
attr source numPacketCreatedSignal
vector 50 slottedNetwork.ch throughput:vector ETV
attr source throughputSignal
vector 51 slottedNetwork.transmitters[0] numPacketDiscarded:vector ETV
attr source numPacketDiscardedSignal
vector 52 slottedNetwork.transmitters[1] numPacketDiscarded:vector ETV
attr source numPacketDiscardedSignal
vector 53 slottedNetwork.transmitters[2] numPacketDiscarded:vector ETV
attr source numPacketDiscardedSignal
vector 54 slottedNetwork.transmitters[3] numPacketDiscarded:vector ETV
attr source numPacketDiscardedSignal
vector 55 slottedNetwork.transmitters[4] numPacketDiscarded:vector ETV
attr source numPacketDiscardedSignal
vector 56 slottedNetwork.transmitters[5] numPacketDiscarded:vector ETV
attr source numPacketDiscardedSignal
vector 57 slottedNetwork.transmitters[6] numPacketDiscarded:vector ETV
attr source numPacketDiscardedSignal
vector 58 slottedNetwork.transmitters[7] numPacketDiscarded:vector ETV
attr source numPacketDiscardedSignal
vector 59 slottedNetwork.transmitters[8] numPacketDiscarded:vector ETV
attr source numPacketDiscardedSignal
vector 60 slottedNetwork.transmitters[9] numPacketDiscarded:vector ETV
attr source numPacketDiscardedSignal
vector 61 slottedNetwork.transmitters[10] numPacketDiscarded:vector ETV
attr source numPacketDiscardedSignal
vector 62 slottedNetwork.transmitters[11] numPacketDiscarded:vector ETV
attr source numPacketDiscardedSignal
vector 63 slottedNetwork.transmitters[12] numPacketDiscarded:vector ETV
attr source numPacketDiscardedSignal
vector 64 slottedNetwork.transmitters[13] numPacketDiscarded:vector ETV
attr source numPacketDiscardedSignal
vector 65 slottedNetwork.transmitters[14] numPacketDiscarded:vector ETV
attr source numPacketDiscardedSignal
vector 66 slottedNetwork.transmitters[15] numPacketDiscarded:vector ETV
attr source numPacketDiscardedSignal
vector 67 slottedNetwork.transmitters[16] numPacketDiscarded:vector ETV
attr source numPacketDiscardedSignal
vector 68 slottedNetwork.transmitters[17] numPacketDiscarded:vector ETV
attr source numPacketDiscardedSignal
vector 69 slottedNetwork.transmitters[18] numPacketDiscarded:vector ETV
attr source numPacketDiscardedSignal
vector 70 slottedNetwork.transmitters[19] numPacketDiscarded:vector ETV
attr source numPacketDiscardedSignal
vector 71 slottedNetwork.transmitters[20] numPacketDiscarded:vector ETV
attr source numPacketDiscardedSignal
vector 72 slottedNetwork.transmitters[21] numPacketDiscarded:vector ETV
attr source numPacketDiscardedSignal
vector 73 slottedNetwork.transmitters[22] numPacketDiscarded:vector ETV
attr source numPacketDiscardedSignal
vector 74 slottedNetwork.transmitters[23] numPacketDiscarded:vector ETV
attr source numPacketDiscardedSignal
vector 75 slottedNetwork.transmitters[24] numPacketDiscarded:vector ETV
attr source numPacketDiscardedSignal
vector 76 slottedNetwork.transmitters[25] numPacketDiscarded:vector ETV
attr source numPacketDiscardedSignal
vector 77 slottedNetwork.transmitters[26] numPacketDiscarded:vector ETV
attr source numPacketDiscardedSignal
vector 78 slottedNetwork.transmitters[27] numPacketDiscarded:vector ETV
attr source numPacketDiscardedSignal
vector 79 slottedNetwork.transmitters[28] numPacketDiscarded:vector ETV
attr source numPacketDiscardedSignal
vector 80 slottedNetwork.transmitters[29] numPacketDiscarded:vector ETV
attr source numPacketDiscardedSignal
vector 81 slottedNetwork.transmitters[30] numPacketDiscarded:vector ETV
attr source numPacketDiscardedSignal
vector 82 slottedNetwork.transmitters[31] numPacketDiscarded:vector ETV
attr source numPacketDiscardedSignal
vector 83 slottedNetwork.transmitters[32] numPacketDiscarded:vector ETV
attr source numPacketDiscardedSignal
vector 84 slottedNetwork.transmitters[33] numPacketDiscarded:vector ETV
attr source numPacketDiscardedSignal
vector 85 slottedNetwork.transmitters[34] numPacketDiscarded:vector ETV
attr source numPacketDiscardedSignal
vector 86 slottedNetwork.transmitters[35] numPacketDiscarded:vector ETV
attr source numPacketDiscardedSignal
vector 87 slottedNetwork.transmitters[36] numPacketDiscarded:vector ETV
attr source numPacketDiscardedSignal
vector 88 slottedNetwork.transmitters[37] numPacketDiscarded:vector ETV
attr source numPacketDiscardedSignal
vector 89 slottedNetwork.transmitters[38] numPacketDiscarded:vector ETV
attr source numPacketDiscardedSignal
vector 90 slottedNetwork.transmitters[39] numPacketDiscarded:vector ETV
attr source numPacketDiscardedSignal
vector 91 slottedNetwork.transmitters[40] numPacketDiscarded:vector ETV
attr source numPacketDiscardedSignal
vector 92 slottedNetwork.transmitters[41] numPacketDiscarded:vector ETV
attr source numPacketDiscardedSignal
vector 93 slottedNetwork.transmitters[42] numPacketDiscarded:vector ETV
attr source numPacketDiscardedSignal
vector 94 slottedNetwork.transmitters[43] numPacketDiscarded:vector ETV
attr source numPacketDiscardedSignal
vector 95 slottedNetwork.transmitters[44] numPacketDiscarded:vector ETV
attr source numPacketDiscardedSignal
vector 96 slottedNetwork.transmitters[45] numPacketDiscarded:vector ETV
attr source numPacketDiscardedSignal
vector 97 slottedNetwork.transmitters[46] numPacketDiscarded:vector ETV
attr source numPacketDiscardedSignal
vector 98 slottedNetwork.transmitters[47] numPacketDiscarded:vector ETV
attr source numPacketDiscardedSignal
vector 99 slottedNetwork.transmitters[48] numPacketDiscarded:vector ETV
attr source numPacketDiscardedSignal
vector 100 slottedNetwork.transmitters[49] numPacketDiscarded:vector ETV
attr source numPacketDiscardedSignal
vector 101 slottedNetwork.receivers[0] numPacketReceived:vector ETV
attr source numPacketReceivedSignal
vector 102 slottedNetwork.receivers[0] responseTime:vector ETV
attr source responseTimeSignal
vector 103 slottedNetwork.receivers[0] threshold:vector ETV
attr source thresholdSignal
vector 104 slottedNetwork.receivers[39] numPacketReceived:vector ETV
attr source numPacketReceivedSignal
vector 105 slottedNetwork.receivers[39] responseTime:vector ETV
attr source responseTimeSignal
vector 106 slottedNetwork.receivers[39] threshold:vector ETV
attr source thresholdSignal
vector 107 slottedNetwork.receivers[3] numPacketReceived:vector ETV
attr source numPacketReceivedSignal
vector 108 slottedNetwork.receivers[3] responseTime:vector ETV
attr source responseTimeSignal
vector 109 slottedNetwork.receivers[3] threshold:vector ETV
attr source thresholdSignal
vector 110 slottedNetwork.receivers[13] numPacketReceived:vector ETV
attr source numPacketReceivedSignal
vector 111 slottedNetwork.receivers[13] responseTime:vector ETV
attr source responseTimeSignal
vector 112 slottedNetwork.receivers[13] threshold:vector ETV
attr source thresholdSignal
vector 113 slottedNetwork.receivers[11] numPacketReceived:vector ETV
attr source numPacketReceivedSignal
vector 114 slottedNetwork.receivers[11] responseTime:vector ETV
attr source responseTimeSignal
vector 115 slottedNetwork.receivers[11] threshold:vector ETV
attr source thresholdSignal
vector 116 slottedNetwork.receivers[45] numPacketReceived:vector ETV
attr source numPacketReceivedSignal
vector 117 slottedNetwork.receivers[45] responseTime:vector ETV
attr source responseTimeSignal
vector 118 slottedNetwork.receivers[45] threshold:vector ETV
attr source thresholdSignal
vector 119 slottedNetwork.receivers[8] numPacketReceived:vector ETV
attr source numPacketReceivedSignal
vector 120 slottedNetwork.receivers[8] responseTime:vector ETV
attr source responseTimeSignal
vector 121 slottedNetwork.receivers[8] threshold:vector ETV
attr source thresholdSignal
vector 122 slottedNetwork.receivers[41] numPacketReceived:vector ETV
attr source numPacketReceivedSignal
vector 123 slottedNetwork.receivers[41] responseTime:vector ETV
attr source responseTimeSignal
vector 124 slottedNetwork.receivers[41] threshold:vector ETV
attr source thresholdSignal
vector 125 slottedNetwork.receivers[47] numPacketReceived:vector ETV
attr source numPacketReceivedSignal
vector 126 slottedNetwork.receivers[47] responseTime:vector ETV
attr source responseTimeSignal
vector 127 slottedNetwork.receivers[47] threshold:vector ETV
attr source thresholdSignal
vector 128 slottedNetwork.receivers[7] numPacketReceived:vector ETV
attr source numPacketReceivedSignal
vector 129 slottedNetwork.receivers[7] responseTime:vector ETV
attr source responseTimeSignal
vector 130 slottedNetwork.receivers[7] threshold:vector ETV
attr source thresholdSignal
vector 131 slottedNetwork.receivers[46] numPacketReceived:vector ETV
attr source numPacketReceivedSignal
vector 132 slottedNetwork.receivers[46] responseTime:vector ETV
attr source responseTimeSignal
vector 133 slottedNetwork.receivers[46] threshold:vector ETV
attr source thresholdSignal
vector 134 slottedNetwork.receivers[18] numPacketReceived:vector ETV
attr source numPacketReceivedSignal
vector 135 slottedNetwork.receivers[18] responseTime:vector ETV
attr source responseTimeSignal
vector 136 slottedNetwork.receivers[18] threshold:vector ETV
attr source thresholdSignal
vector 137 slottedNetwork.receivers[37] numPacketReceived:vector ETV
attr source numPacketReceivedSignal
vector 138 slottedNetwork.receivers[37] responseTime:vector ETV
attr source responseTimeSignal
vector 139 slottedNetwork.receivers[37] threshold:vector ETV
attr source thresholdSignal
vector 140 slottedNetwork.receivers[34] numPacketReceived:vector ETV
attr source numPacketReceivedSignal
vector 141 slottedNetwork.receivers[34] responseTime:vector ETV
attr source responseTimeSignal
vector 142 slottedNetwork.receivers[34] threshold:vector ETV
attr source thresholdSignal
vector 143 slottedNetwork.receivers[9] numPacketReceived:vector ETV
attr source numPacketReceivedSignal
vector 144 slottedNetwork.receivers[9] responseTime:vector ETV
attr source responseTimeSignal
vector 145 slottedNetwork.receivers[9] threshold:vector ETV
attr source thresholdSignal
vector 146 slottedNetwork.receivers[44] numPacketReceived:vector ETV
attr source numPacketReceivedSignal
vector 147 slottedNetwork.receivers[44] responseTime:vector ETV
attr source responseTimeSignal
vector 148 slottedNetwork.receivers[44] threshold:vector ETV
attr source thresholdSignal
vector 149 slottedNetwork.receivers[12] numPacketReceived:vector ETV
attr source numPacketReceivedSignal
vector 150 slottedNetwork.receivers[12] responseTime:vector ETV
attr source responseTimeSignal
vector 151 slottedNetwork.receivers[12] threshold:vector ETV
attr source thresholdSignal
vector 152 slottedNetwork.receivers[32] numPacketReceived:vector ETV
attr source numPacketReceivedSignal
vector 153 slottedNetwork.receivers[32] responseTime:vector ETV
attr source responseTimeSignal
vector 154 slottedNetwork.receivers[32] threshold:vector ETV
attr source thresholdSignal
vector 155 slottedNetwork.receivers[25] numPacketReceived:vector ETV
attr source numPacketReceivedSignal
vector 156 slottedNetwork.receivers[25] responseTime:vector ETV
attr source responseTimeSignal
vector 157 slottedNetwork.receivers[25] threshold:vector ETV
attr source thresholdSignal
vector 158 slottedNetwork.receivers[38] numPacketReceived:vector ETV
attr source numPacketReceivedSignal
vector 159 slottedNetwork.receivers[38] responseTime:vector ETV
attr source responseTimeSignal
vector 160 slottedNetwork.receivers[38] threshold:vector ETV
attr source thresholdSignal
vector 161 slottedNetwork.receivers[16] numPacketReceived:vector ETV
attr source numPacketReceivedSignal
vector 162 slottedNetwork.receivers[16] responseTime:vector ETV
attr source responseTimeSignal
vector 163 slottedNetwork.receivers[16] threshold:vector ETV
attr source thresholdSignal
vector 164 slottedNetwork.receivers[40] numPacketReceived:vector ETV
attr source numPacketReceivedSignal
vector 165 slottedNetwork.receivers[40] responseTime:vector ETV
attr source responseTimeSignal
vector 166 slottedNetwork.receivers[40] threshold:vector ETV
attr source thresholdSignal
vector 167 slottedNetwork.receivers[19] numPacketReceived:vector ETV
attr source numPacketReceivedSignal
vector 168 slottedNetwork.receivers[19] responseTime:vector ETV
attr source responseTimeSignal
vector 169 slottedNetwork.receivers[19] threshold:vector ETV
attr source thresholdSignal
vector 170 slottedNetwork.receivers[28] numPacketReceived:vector ETV
attr source numPacketReceivedSignal
vector 171 slottedNetwork.receivers[28] responseTime:vector ETV
attr source responseTimeSignal
vector 172 slottedNetwork.receivers[28] threshold:vector ETV
attr source thresholdSignal
vector 173 slottedNetwork.receivers[21] numPacketReceived:vector ETV
attr source numPacketReceivedSignal
vector 174 slottedNetwork.receivers[21] responseTime:vector ETV
attr source responseTimeSignal
vector 175 slottedNetwork.receivers[21] threshold:vector ETV
attr source thresholdSignal
vector 176 slottedNetwork.receivers[10] numPacketReceived:vector ETV
attr source numPacketReceivedSignal
vector 177 slottedNetwork.receivers[10] responseTime:vector ETV
attr source responseTimeSignal
vector 178 slottedNetwork.receivers[10] threshold:vector ETV
attr source thresholdSignal
vector 179 slottedNetwork.receivers[23] numPacketReceived:vector ETV
attr source numPacketReceivedSignal
vector 180 slottedNetwork.receivers[23] responseTime:vector ETV
attr source responseTimeSignal
vector 181 slottedNetwork.receivers[23] threshold:vector ETV
attr source thresholdSignal
vector 182 slottedNetwork.receivers[48] numPacketReceived:vector ETV
attr source numPacketReceivedSignal
vector 183 slottedNetwork.receivers[48] responseTime:vector ETV
attr source responseTimeSignal
vector 184 slottedNetwork.receivers[48] threshold:vector ETV
attr source thresholdSignal
vector 185 slottedNetwork.receivers[24] numPacketReceived:vector ETV
attr source numPacketReceivedSignal
vector 186 slottedNetwork.receivers[24] responseTime:vector ETV
attr source responseTimeSignal
vector 187 slottedNetwork.receivers[24] threshold:vector ETV
attr source thresholdSignal
vector 188 slottedNetwork.receivers[5] numPacketReceived:vector ETV
attr source numPacketReceivedSignal
vector 189 slottedNetwork.receivers[5] responseTime:vector ETV
attr source responseTimeSignal
vector 190 slottedNetwork.receivers[5] threshold:vector ETV
attr source thresholdSignal
vector 191 slottedNetwork.receivers[15] numPacketReceived:vector ETV
attr source numPacketReceivedSignal
vector 192 slottedNetwork.receivers[15] responseTime:vector ETV
attr source responseTimeSignal
vector 193 slottedNetwork.receivers[15] threshold:vector ETV
attr source thresholdSignal
0	1	4	1
0	143	8	1
0	251	12	1
0	354	16	1
0	405	20	1
0	518	24	1
0	627	28	1
0	736	32	1
0	851	36	1
0	902	40	1
0	1014	44	1
0	1118	48	1
0	1224	52	1
0	1331	56	1
0	1382	60	1
0	1491	64	1
0	1598	68	1
0	1703	72	1
0	1813	76	1
0	1864	80	1
0	1969	84	1
0	2075	88	1
0	2179	92	1
0	2285	96	1
0	2336	100	1
0	2439	104	1
0	2546	108	1
0	2650	112	1
0	2755	116	1
0	2806	120	1
0	2909	124	1
0	3010	128	1
0	3117	132	1
0	3220	136	1
0	3271	140	1
0	3374	144	1
0	3479	148	1
0	3587	152	1
0	3692	156	1
0	3743	160	1
0	3844	164	1
0	3951	168	1
0	4052	172	1
0	4155	176	1
0	4206	180	1
0	4308	184	1
0	4411	188	1
0	4513	192	1
0	4619	196	1
0	4670	200	1
0	4771	204	1
0	4875	208	1
0	4977	212	1
0	5082	216	1
0	5133	220	1
0	5235	224	1
0	5337	228	1
0	5443	232	1
0	5545	236	1
0	5596	240	1
0	5700	244	1
0	5805	248	1
0	5909	252	1
0	6010	256	1
0	6061	260	1
0	6162	264	1
0	6270	268	1
0	6374	272	1
0	6478	276	1
0	6529	280	1
0	6629	284	1
0	6731	288	1
0	6838	292	1
0	6944	296	1
0	6995	300	1
0	7097	304	1
0	7199	308	1
0	7304	312	1
0	7407	316	1
0	7458	320	1
0	7561	324	1
0	7665	328	1
0	7769	332	1
0	7871	336	1
0	7922	340	1
0	8025	344	1
0	8129	348	1
0	8232	352	1
0	8333	356	1
0	8384	360	1
0	8486	364	1
0	8592	368	1
0	8698	372	1
0	8800	376	1
0	8851	380	1
0	8955	384	1
0	9057	388	1
0	9161	392	1
0	9264	396	1
0	9315	400	1
0	9417	404	1
0	9518	408	1
0	9619	412	1
0	9723	416	1
0	9774	420	1
0	9875	424	1
0	9978	428	1
0	10083	432	1
0	10186	436	1
0	10237	440	1
0	10337	444	1
0	10439	448	1
0	10545	452	1
0	10647	456	1
0	10698	460	1
0	10801	464	1
0	10902	468	1
0	11004	472	1
0	11107	476	1
0	11158	480	1
0	11262	484	1
0	11367	488	1
0	11469	492	1
0	11574	496	1
0	11625	500	1
0	11726	504	1
0	11829	508	1
0	11933	512	1
0	12038	516	1
0	12089	520	1
0	12191	524	1
0	12296	528	1
0	12398	532	1
0	12501	536	1
0	12552	540	1
0	12657	544	1
0	12760	548	1
0	12863	552	1
0	12965	556	1
0	13016	560	1
0	13119	564	1
0	13222	568	1
0	13324	572	1
0	13428	576	1
0	13479	580	1
0	13580	584	1
0	13685	588	1
0	13788	592	1
0	13890	596	1
0	13941	600	1
0	14046	604	1
0	14147	608	1
0	14248	612	1
0	14353	616	1
0	14404	620	1
0	14504	624	1
0	14606	628	1
0	14712	632	1
0	14815	636	1
0	14866	640	1
0	14966	644	1
0	15074	648	1
0	15175	652	1
0	15277	656	1
0	15328	660	1
0	15432	664	1
0	15535	668	1
0	15636	672	1
0	15738	676	1
0	15789	680	1
0	15893	684	1
0	15996	688	1
0	16098	692	1
0	16202	696	1
0	16253	700	1
0	16355	704	1
0	16458	708	1
0	16560	712	1
0	16663	716	1
0	16714	720	1
0	16817	724	1
0	16920	728	1
0	17022	732	1
0	17127	736	1
0	17178	740	1
0	17279	744	1
0	17382	748	1
0	17484	752	1
0	17588	756	1
0	17639	760	1
0	17739	764	1
0	17841	768	1
0	17945	772	1
0	18050	776	1
0	18101	780	1
0	18203	784	1
0	18307	788	1
0	18409	792	1
0	18513	796	1
0	18564	800	1
0	18665	804	1
0	18769	808	1
0	18871	812	1
0	18975	816	1
0	19026	820	1
0	19128	824	1
0	19230	828	1
0	19336	832	1
0	19439	836	1
0	19490	840	1
0	19591	844	1
0	19695	848	1
0	19797	852	1
0	19902	856	1
0	19953	860	1
0	20055	864	1
0	20158	868	1
0	20260	872	1
0	20364	876	1
0	20415	880	1
0	20518	884	1
0	20622	888	1
0	20723	892	1
0	20825	896	1
0	20876	900	1
0	20978	904	1
0	21081	908	1
0	21184	912	1
0	21287	916	1
0	21338	920	1
0	21440	924	1
0	21543	928	1
0	21647	932	1
0	21749	936	1
0	21800	940	1
0	21902	944	1
0	22004	948	1
0	22106	952	1
0	22210	956	1
0	22261	960	1
0	22362	964	1
0	22465	968	1
0	22571	972	1
0	22675	976	1
0	22726	980	1
0	22826	984	1
0	22928	988	1
0	23031	992	1
0	23135	996	1
0	23186	1000	1
0	23287	1004	1
0	23392	1008	1
0	23493	1012	1
0	23594	1016	1
0	23645	1020	1
0	23746	1024	1
0	23850	1028	1
0	23954	1032	1
0	24056	1036	1
0	24107	1040	1
0	24210	1044	1
0	24311	1048	1
0	24413	1052	1
0	24516	1056	1
0	24567	1060	1
0	24670	1064	1
0	24772	1068	1
0	24875	1072	1
0	24979	1076	1
0	25030	1080	1
0	25131	1084	1
0	25234	1088	1
0	25338	1092	1
0	25441	1096	1
0	25492	1100	1
0	25592	1104	1
0	25695	1108	1
0	25799	1112	1
0	25901	1116	1
0	25952	1120	1
0	26055	1124	1
0	26156	1128	1
0	26259	1132	1
0	26361	1136	1
0	26412	1140	1
0	26516	1144	1
0	26618	1148	1
0	26722	1152	1
0	26823	1156	1
0	26874	1160	1
0	26974	1164	1
0	27077	1168	1
0	27179	1172	1
0	27282	1176	1
0	27333	1180	1
0	27436	1184	1
0	27537	1188	1
0	27640	1192	1
0	27741	1196	1
0	27792	1200	1
0	27893	1204	1
0	27997	1208	1
0	28100	1212	1
0	28201	1216	1
0	28252	1220	1
0	28352	1224	1
0	28454	1228	1
0	28557	1232	1
0	28661	1236	1
0	28712	1240	1
0	28814	1244	1
0	28915	1248	1
0	29017	1252	1
0	29121	1256	1
0	29172	1260	1
0	29273	1264	1
0	29377	1268	1
0	29478	1272	1
0	29581	1276	1
0	29632	1280	1
0	29732	1284	1
0	29834	1288	1
0	29938	1292	1
0	30039	1296	1
0	30090	1300	1
0	30191	1304	1
0	30298	1308	1
0	30400	1312	1
0	30503	1316	1
0	30554	1320	1
0	30655	1324	1
0	30758	1328	1
0	30861	1332	1
0	30964	1336	1
0	31015	1340	1
0	31115	1344	1
0	31217	1348	1
0	31320	1352	1
0	31424	1356	1
0	31475	1360	1
0	31575	1364	1
0	31678	1368	1
0	31780	1372	1
0	31885	1376	1
0	31936	1380	1
0	32037	1384	1
0	32140	1388	1
0	32244	1392	1
0	32346	1396	1
0	32397	1400	1
0	32500	1404	1
0	32601	1408	1
0	32703	1412	1
0	32808	1416	1
0	32859	1420	1
0	32961	1424	1
0	33062	1428	1
0	33163	1432	1
0	33264	1436	1
0	33315	1440	1
0	33416	1444	1
0	33519	1448	1
0	33624	1452	1
0	33725	1456	1
0	33776	1460	1
0	33876	1464	1
0	33977	1468	1
0	34081	1472	1
0	34183	1476	1
0	34234	1480	1
0	34336	1484	1
0	34440	1488	1
0	34541	1492	1
0	34643	1496	1
0	34694	1500	1
0	34796	1504	1
0	34901	1508	1
0	35003	1512	1
0	35107	1516	1
0	35158	1520	1
0	35261	1524	1
0	35362	1528	1
0	35464	1532	1
0	35568	1536	1
0	35619	1540	1
0	35719	1544	1
0	35820	1548	1
0	35922	1552	1
0	36025	1556	1
0	36076	1560	1
0	36179	1564	1
0	36282	1568	1
0	36383	1572	1
0	36484	1576	1
0	36535	1580	1
0	36636	1584	1
0	36743	1588	1
0	36844	1592	1
0	36946	1596	1
0	36997	1600	1
0	37099	1604	1
0	37203	1608	1
0	37304	1612	1
0	37405	1616	1
0	37456	1620	1
0	37557	1624	1
0	37661	1628	1
0	37763	1632	1
0	37868	1636	1
0	37919	1640	1
0	38020	1644	1
0	38124	1648	1
0	38225	1652	1
0	38328	1656	1
0	38379	1660	1
0	38481	1664	1
0	38583	1668	1
0	38687	1672	1
0	38790	1676	1
0	38841	1680	1
0	38942	1684	1
0	39045	1688	1
0	39149	1692	1
0	39252	1696	1
0	39303	1700	1
0	39405	1704	1
0	39508	1708	1
0	39609	1712	1
0	39711	1716	1
0	39762	1720	1
0	39865	1724	1
0	39967	1728	1
0	40072	1732	1
0	40174	1736	1
0	40225	1740	1
0	40327	1744	1
0	40431	1748	1
0	40533	1752	1
0	40637	1756	1
0	40688	1760	1
0	40788	1764	1
0	40891	1768	1
0	40993	1772	1
0	41098	1776	1
0	41149	1780	1
0	41250	1784	1
0	41353	1788	1
0	41458	1792	1
0	41559	1796	1
0	41610	1800	1
0	41712	1804	1
0	41813	1808	1
0	41914	1812	1
0	42016	1816	1
0	42067	1820	1
0	42171	1824	1
0	42273	1828	1
0	42377	1832	1
0	42478	1836	1
0	42529	1840	1
0	42629	1844	1
0	42731	1848	1
0	42835	1852	1
0	42939	1856	1
0	42990	1860	1
0	43090	1864	1
0	43192	1868	1
0	43295	1872	1
0	43397	1876	1
0	43448	1880	1
0	43550	1884	1
0	43652	1888	1
0	43756	1892	1
0	43858	1896	1
0	43909	1900	1
0	44012	1904	1
0	44113	1908	1
0	44214	1912	1
0	44317	1916	1
0	44368	1920	1
0	44469	1924	1
0	44573	1928	1
0	44675	1932	1
0	44779	1936	1
0	44830	1940	1
0	44931	1944	1
0	45034	1948	1
0	45139	1952	1
0	45240	1956	1
0	45291	1960	1
0	45392	1964	1
0	45497	1968	1
0	45600	1972	1
0	45702	1976	1
0	45753	1980	1
0	45857	1984	1
0	45958	1988	1
0	46059	1992	1
0	46161	1996	1
0	46212	2000	1
0	46317	2004	1
0	46420	2008	1
0	46522	2012	1
0	46625	2016	1
0	46676	2020	1
0	46778	2024	1
0	46882	2028	1
0	46985	2032	1
0	47087	2036	1
0	47138	2040	1
0	47241	2044	1
0	47343	2048	1
0	47449	2052	1
0	47551	2056	1
0	47602	2060	1
0	47703	2064	1
0	47806	2068	1
0	47908	2072	1
0	48011	2076	1
0	48062	2080	1
0	48165	2084	1
0	48268	2088	1
0	48370	2092	1
0	48474	2096	1
0	48525	2100	1
0	48627	2104	1
0	48729	2108	1
0	48834	2112	1
0	48936	2116	1
0	48987	2120	1
0	49088	2124	1
0	49191	2128	1
0	49293	2132	1
0	49395	2136	1
0	49446	2140	1
0	49548	2144	1
0	49649	2148	1
0	49751	2152	1
0	49854	2156	1
0	49905	2160	1
0	50007	2164	1
0	50111	2168	1
0	50212	2172	1
0	50313	2176	1
0	50364	2180	1
0	50468	2184	1
0	50571	2188	1
0	50673	2192	1
0	50776	2196	1
0	50827	2200	1
0	50930	2204	1
0	51033	2208	1
0	51134	2212	1
0	51239	2216	1
0	51290	2220	1
0	51390	2224	1
0	51492	2228	1
0	51596	2232	1
0	51699	2236	1
0	51750	2240	1
0	51850	2244	1
0	51952	2248	1
0	52055	2252	1
0	52160	2256	1
0	52211	2260	1
0	52311	2264	1
0	52413	2268	1
0	52519	2272	1
0	52623	2276	1
0	52674	2280	1
0	52775	2284	1
0	52878	2288	1
0	52982	2292	1
0	53086	2296	1
0	53137	2300	1
0	53237	2304	1
0	53339	2308	1
0	53445	2312	1
0	53547	2316	1
0	53598	2320	1
0	53699	2324	1
0	53802	2328	1
0	53903	2332	1
0	54007	2336	1
0	54058	2340	1
0	54158	2344	1
0	54260	2348	1
0	54364	2352	1
0	54467	2356	1
0	54518	2360	1
0	54618	2364	1
0	54721	2368	1
0	54824	2372	1
0	54925	2376	1
0	54976	2380	1
0	55077	2384	1
0	55181	2388	1
0	55283	2392	1
0	55386	2396	1
0	55437	2400	1
0	55539	2404	1
0	55642	2408	1
0	55745	2412	1
0	55850	2416	1
0	55901	2420	1
0	56002	2424	1
0	56107	2428	1
0	56209	2432	1
0	56313	2436	1
0	56364	2440	1
0	56467	2444	1
0	56569	2448	1
0	56673	2452	1
0	56777	2456	1
0	56828	2460	1
0	56929	2464	1
0	57033	2468	1
0	57136	2472	1
0	57238	2476	1
0	57289	2480	1
0	57391	2484	1
0	57496	2488	1
0	57597	2492	1
0	57699	2496	1
0	57750	2500	1
0	57852	2504	1
0	57957	2508	1
0	58059	2512	1
0	58164	2516	1
0	58215	2520	1
0	58316	2524	1
0	58420	2528	1
0	58522	2532	1
0	58628	2536	1
0	58679	2540	1
0	58782	2544	1
0	58884	2548	1
0	58988	2552	1
0	59090	2556	1
0	59141	2560	1
0	59243	2564	1
0	59350	2568	1
0	59451	2572	1
0	59552	2576	1
0	59603	2580	1
0	59704	2584	1
0	59807	2588	1
0	59914	2592	1
0	60017	2596	1
0	60068	2600	1
0	60169	2604	1
0	60272	2608	1
0	60374	2612	1
0	60477	2616	1
0	60528	2620	1
0	60629	2624	1
0	60733	2628	1
0	60834	2632	1
0	60935	2636	1
0	60986	2640	1
0	61087	2644	1
0	61190	2648	1
0	61295	2652	1
0	61397	2656	1
0	61448	2660	1
0	61549	2664	1
0	61652	2668	1
0	61753	2672	1
0	61856	2676	1
0	61907	2680	1
0	62009	2684	1
0	62112	2688	1
0	62214	2692	1
0	62318	2696	1
0	62369	2700	1
0	62470	2704	1
0	62574	2708	1
0	62675	2712	1
0	62777	2716	1
0	62828	2720	1
0	62931	2724	1
0	63032	2728	1
0	63136	2732	1
0	63237	2736	1
0	63288	2740	1
0	63388	2744	1
0	63491	2748	1
0	63594	2752	1
0	63696	2756	1
0	63747	2760	1
0	63851	2764	1
0	63953	2768	1
0	64057	2772	1
0	64160	2776	1
0	64211	2780	1
0	64312	2784	1
0	64415	2788	1
0	64519	2792	1
0	64621	2796	1
0	64672	2800	1
0	64775	2804	1
0	64877	2808	1
0	64982	2812	1
0	65084	2816	1
0	65135	2820	1
0	65238	2824	1
0	65339	2828	1
0	65440	2832	1
0	65542	2836	1
0	65593	2840	1
0	65696	2844	1
0	65799	2848	1
0	65900	2852	1
0	66003	2856	1
0	66054	2860	1
0	66156	2864	1
0	66257	2868	1
0	66358	2872	1
0	66460	2876	1
0	66511	2880	1
0	66613	2884	1
0	66717	2888	1
0	66819	2892	1
0	66922	2896	1
0	66973	2900	1
0	67077	2904	1
0	67180	2908	1
0	67281	2912	1
0	67384	2916	1
0	67435	2920	1
0	67535	2924	1
0	67640	2928	1
0	67741	2932	1
0	67842	2936	1
0	67893	2940	1
0	67994	2944	1
0	68099	2948	1
0	68201	2952	1
0	68304	2956	1
0	68355	2960	1
0	68457	2964	1
0	68562	2968	1
0	68664	2972	1
0	68767	2976	1
0	68818	2980	1
0	68921	2984	1
0	69023	2988	1
0	69127	2992	1
0	69229	2996	1
0	69280	3000	1
0	69381	3004	1
0	69483	3008	1
0	69587	3012	1
0	69691	3016	1
0	69742	3020	1
0	69842	3024	1
0	69943	3028	1
0	70046	3032	1
0	70147	3036	1
0	70198	3040	1
0	70298	3044	1
0	70401	3048	1
0	70502	3052	1
0	70605	3056	1
0	70656	3060	1
0	70757	3064	1
0	70860	3068	1
0	70963	3072	1
0	71067	3076	1
0	71118	3080	1
0	71219	3084	1
0	71323	3088	1
0	71426	3092	1
0	71527	3096	1
0	71578	3100	1
0	71678	3104	1
0	71780	3108	1
0	71884	3112	1
0	71985	3116	1
0	72036	3120	1
0	72136	3124	1
0	72237	3128	1
0	72338	3132	1
0	72440	3136	1
0	72491	3140	1
0	72594	3144	1
0	72696	3148	1
0	72799	3152	1
0	72903	3156	1
0	72954	3160	1
0	73054	3164	1
0	73156	3168	1
0	73259	3172	1
0	73362	3176	1
0	73413	3180	1
0	73516	3184	1
0	73618	3188	1
0	73721	3192	1
0	73824	3196	1
0	73875	3200	1
0	73978	3204	1
0	74080	3208	1
0	74184	3212	1
0	74285	3216	1
0	74336	3220	1
0	74436	3224	1
0	74537	3228	1
0	74638	3232	1
0	74740	3236	1
0	74791	3240	1
0	74895	3244	1
0	74997	3248	1
0	75100	3252	1
0	75204	3256	1
0	75255	3260	1
0	75357	3264	1
0	75458	3268	1
0	75562	3272	1
0	75663	3276	1
0	75714	3280	1
0	75814	3284	1
0	75916	3288	1
0	76021	3292	1
0	76122	3296	1
0	76173	3300	1
0	76274	3304	1
0	76379	3308	1
0	76481	3312	1
0	76585	3316	1
0	76636	3320	1
0	76737	3324	1
0	76840	3328	1
0	76946	3332	1
0	77047	3336	1
0	77098	3340	1
0	77198	3344	1
0	77301	3348	1
0	77404	3352	1
0	77505	3356	1
0	77556	3360	1
0	77656	3364	1
0	77758	3368	1
0	77860	3372	1
0	77961	3376	1
0	78012	3380	1
0	78113	3384	1
0	78215	3388	1
0	78317	3392	1
0	78420	3396	1
0	78471	3400	1
0	78573	3404	1
0	78676	3408	1
0	78780	3412	1
0	78881	3416	1
0	78932	3420	1
0	79033	3424	1
0	79137	3428	1
0	79239	3432	1
0	79345	3436	1
0	79396	3440	1
0	79497	3444	1
0	79600	3448	1
0	79703	3452	1
0	79806	3456	1
0	79857	3460	1
0	79961	3464	1
0	80062	3468	1
0	80163	3472	1
0	80265	3476	1
0	80316	3480	1
0	80418	3484	1
0	80521	3488	1
0	80625	3492	1
0	80726	3496	1
0	80777	3500	1
0	80879	3504	1
0	80981	3508	1
0	81085	3512	1
0	81187	3516	1
0	81238	3520	1
0	81340	3524	1
0	81444	3528	1
0	81546	3532	1
0	81650	3536	1
0	81701	3540	1
0	81803	3544	1
0	81906	3548	1
0	82008	3552	1
0	82111	3556	1
0	82162	3560	1
0	82265	3564	1
0	82367	3568	1
0	82470	3572	1
0	82573	3576	1
0	82624	3580	1
0	82725	3584	1
0	82829	3588	1
0	82931	3592	1
0	83035	3596	1
0	83086	3600	1
1	2	4	1
1	144	8	1
1	252	12	1
1	355	16	1
1	406	20	1
1	519	24	1
1	628	28	1
1	737	32	1
1	852	36	1
1	903	40	1
1	1015	44	1
1	1119	48	1
1	1225	52	1
1	1332	56	1
1	1383	60	1
1	1492	64	1
1	1599	68	1
1	1704	72	1
1	1814	76	1
1	1865	80	1
1	1970	84	1
1	2076	88	1
1	2180	92	1
1	2286	96	1
1	2337	100	1
1	2440	104	1
1	2547	108	1
1	2651	112	1
1	2756	116	1
1	2807	120	1
1	2910	124	1
1	3011	128	1
1	3118	132	1
1	3221	136	1
1	3272	140	1
1	3375	144	1
1	3480	148	1
1	3588	152	1
1	3693	156	1
1	3744	160	1
1	3845	164	1
1	3952	168	1
1	4053	172	1
1	4156	176	1
1	4207	180	1
1	4309	184	1
1	4412	188	1
1	4514	192	1
1	4620	196	1
1	4671	200	1
1	4772	204	1
1	4876	208	1
1	4978	212	1
1	5083	216	1
1	5134	220	1
1	5236	224	1
1	5338	228	1
1	5444	232	1
1	5546	236	1
1	5597	240	1
1	5701	244	1
1	5806	248	1
1	5910	252	1
1	6011	256	1
1	6062	260	1
1	6163	264	1
1	6271	268	1
1	6375	272	1
1	6479	276	1
1	6530	280	1
1	6630	284	1
1	6732	288	1
1	6839	292	1
1	6945	296	1
1	6996	300	1
1	7098	304	1
1	7200	308	1
1	7305	312	1
1	7408	316	1
1	7459	320	1
1	7562	324	1
1	7666	328	1
1	7770	332	1
1	7872	336	1
1	7923	340	1
1	8026	344	1
1	8130	348	1
1	8233	352	1
1	8334	356	1
1	8385	360	1
1	8487	364	1
1	8593	368	1
1	8699	372	1
1	8801	376	1
1	8852	380	1
1	8956	384	1
1	9058	388	1
1	9162	392	1
1	9265	396	1
1	9316	400	1
1	9418	404	1
1	9519	408	1
1	9620	412	1
1	9724	416	1
1	9775	420	1
1	9876	424	1
1	9979	428	1
1	10084	432	1
1	10187	436	1
1	10238	440	1
1	10338	444	1
1	10440	448	1
1	10546	452	1
1	10648	456	1
1	10699	460	1
1	10802	464	1
1	10903	468	1
1	11005	472	1
1	11108	476	1
1	11159	480	1
1	11263	484	1
1	11368	488	1
1	11470	492	1
1	11575	496	1
1	11626	500	1
1	11727	504	1
1	11830	508	1
1	11934	512	1
1	12039	516	1
1	12090	520	1
1	12192	524	1
1	12297	528	1
1	12399	532	1
1	12502	536	1
1	12553	540	1
1	12658	544	1
1	12761	548	1
1	12864	552	1
1	12966	556	1
1	13017	560	1
1	13120	564	1
1	13223	568	1
1	13325	572	1
1	13429	576	1
1	13480	580	1
1	13581	584	1
1	13686	588	1
1	13789	592	1
1	13891	596	1
1	13942	600	1
1	14047	604	1
1	14148	608	1
1	14249	612	1
1	14354	616	1
1	14405	620	1
1	14505	624	1
1	14607	628	1
1	14713	632	1
1	14816	636	1
1	14867	640	1
1	14967	644	1
1	15075	648	1
1	15176	652	1
1	15278	656	1
1	15329	660	1
1	15433	664	1
1	15536	668	1
1	15637	672	1
1	15739	676	1
1	15790	680	1
1	15894	684	1
1	15997	688	1
1	16099	692	1
1	16203	696	1
1	16254	700	1
1	16356	704	1
1	16459	708	1
1	16561	712	1
1	16664	716	1
1	16715	720	1
1	16818	724	1
1	16921	728	1
1	17023	732	1
1	17128	736	1
1	17179	740	1
1	17280	744	1
1	17383	748	1
1	17485	752	1
1	17589	756	1
1	17640	760	1
1	17740	764	1
1	17842	768	1
1	17946	772	1
1	18051	776	1
1	18102	780	1
1	18204	784	1
1	18308	788	1
1	18410	792	1
1	18514	796	1
1	18565	800	1
1	18666	804	1
1	18770	808	1
1	18872	812	1
1	18976	816	1
1	19027	820	1
1	19129	824	1
1	19231	828	1
1	19337	832	1
1	19440	836	1
1	19491	840	1
1	19592	844	1
1	19696	848	1
1	19798	852	1
1	19903	856	1
1	19954	860	1
1	20056	864	1
1	20159	868	1
1	20261	872	1
1	20365	876	1
1	20416	880	1
1	20519	884	1
1	20623	888	1
1	20724	892	1
1	20826	896	1
1	20877	900	1
1	20979	904	1
1	21082	908	1
1	21185	912	1
1	21288	916	1
1	21339	920	1
1	21441	924	1
1	21544	928	1
1	21648	932	1
1	21750	936	1
1	21801	940	1
1	21903	944	1
1	22005	948	1
1	22107	952	1
1	22211	956	1
1	22262	960	1
1	22363	964	1
1	22466	968	1
1	22572	972	1
1	22676	976	1
1	22727	980	1
1	22827	984	1
1	22929	988	1
1	23032	992	1
1	23136	996	1
1	23187	1000	1
1	23288	1004	1
1	23393	1008	1
1	23494	1012	1
1	23595	1016	1
1	23646	1020	1
1	23747	1024	1
1	23851	1028	1
1	23955	1032	1
1	24057	1036	1
1	24108	1040	1
1	24211	1044	1
1	24312	1048	1
1	24414	1052	1
1	24517	1056	1
1	24568	1060	1
1	24671	1064	1
1	24773	1068	1
1	24876	1072	1
1	24980	1076	1
1	25031	1080	1
1	25132	1084	1
1	25235	1088	1
1	25339	1092	1
1	25442	1096	1
1	25493	1100	1
1	25593	1104	1
1	25696	1108	1
1	25800	1112	1
1	25902	1116	1
1	25953	1120	1
1	26056	1124	1
1	26157	1128	1
1	26260	1132	1
1	26362	1136	1
1	26413	1140	1
1	26517	1144	1
1	26619	1148	1
1	26723	1152	1
1	26824	1156	1
1	26875	1160	1
1	26975	1164	1
1	27078	1168	1
1	27180	1172	1
1	27283	1176	1
1	27334	1180	1
1	27437	1184	1
1	27538	1188	1
1	27641	1192	1
1	27742	1196	1
1	27793	1200	1
1	27894	1204	1
1	27998	1208	1
1	28101	1212	1
1	28202	1216	1
1	28253	1220	1
1	28353	1224	1
1	28455	1228	1
1	28558	1232	1
1	28662	1236	1
1	28713	1240	1
1	28815	1244	1
1	28916	1248	1
1	29018	1252	1
1	29122	1256	1
1	29173	1260	1
1	29274	1264	1
1	29378	1268	1
1	29479	1272	1
1	29582	1276	1
1	29633	1280	1
1	29733	1284	1
1	29835	1288	1
1	29939	1292	1
1	30040	1296	1
1	30091	1300	1
1	30192	1304	1
1	30299	1308	1
1	30401	1312	1
1	30504	1316	1
1	30555	1320	1
1	30656	1324	1
1	30759	1328	1
1	30862	1332	1
1	30965	1336	1
1	31016	1340	1
1	31116	1344	1
1	31218	1348	1
1	31321	1352	1
1	31425	1356	1
1	31476	1360	1
1	31576	1364	1
1	31679	1368	1
1	31781	1372	1
1	31886	1376	1
1	31937	1380	1
1	32038	1384	1
1	32141	1388	1
1	32245	1392	1
1	32347	1396	1
1	32398	1400	1
1	32501	1404	1
1	32602	1408	1
1	32704	1412	1
1	32809	1416	1
1	32860	1420	1
1	32962	1424	1
1	33063	1428	1
1	33164	1432	1
1	33265	1436	1
1	33316	1440	1
1	33417	1444	1
1	33520	1448	1
1	33625	1452	1
1	33726	1456	1
1	33777	1460	1
1	33877	1464	1
1	33978	1468	1
1	34082	1472	1
1	34184	1476	1
1	34235	1480	1
1	34337	1484	1
1	34441	1488	1
1	34542	1492	1
1	34644	1496	1
1	34695	1500	1
1	34797	1504	1
1	34902	1508	1
1	35004	1512	1
1	35108	1516	1
1	35159	1520	1
1	35262	1524	1
1	35363	1528	1
1	35465	1532	1
1	35569	1536	1
1	35620	1540	1
1	35720	1544	1
1	35821	1548	1
1	35923	1552	1
1	36026	1556	1
1	36077	1560	1
1	36180	1564	1
1	36283	1568	1
1	36384	1572	1
1	36485	1576	1
1	36536	1580	1
1	36637	1584	1
1	36744	1588	1
1	36845	1592	1
1	36947	1596	1
1	36998	1600	1
1	37100	1604	1
1	37204	1608	1
1	37305	1612	1
1	37406	1616	1
1	37457	1620	1
1	37558	1624	1
1	37662	1628	1
1	37764	1632	1
1	37869	1636	1
1	37920	1640	1
1	38021	1644	1
1	38125	1648	1
1	38226	1652	1
1	38329	1656	1
1	38380	1660	1
1	38482	1664	1
1	38584	1668	1
1	38688	1672	1
1	38791	1676	1
1	38842	1680	1
1	38943	1684	1
1	39046	1688	1
1	39150	1692	1
1	39253	1696	1
1	39304	1700	1
1	39406	1704	1
1	39509	1708	1
1	39610	1712	1
1	39712	1716	1
1	39763	1720	1
1	39866	1724	1
1	39968	1728	1
1	40073	1732	1
1	40175	1736	1
1	40226	1740	1
1	40328	1744	1
1	40432	1748	1
1	40534	1752	1
1	40638	1756	1
1	40689	1760	1
1	40789	1764	1
1	40892	1768	1
1	40994	1772	1
1	41099	1776	1
1	41150	1780	1
1	41251	1784	1
1	41354	1788	1
1	41459	1792	1
1	41560	1796	1
1	41611	1800	1
1	41713	1804	1
1	41814	1808	1
1	41915	1812	1
1	42017	1816	1
1	42068	1820	1
1	42172	1824	1
1	42274	1828	1
1	42378	1832	1
1	42479	1836	1
1	42530	1840	1
1	42630	1844	1
1	42732	1848	1
1	42836	1852	1
1	42940	1856	1
1	42991	1860	1
1	43091	1864	1
1	43193	1868	1
1	43296	1872	1
1	43398	1876	1
1	43449	1880	1
1	43551	1884	1
1	43653	1888	1
1	43757	1892	1
1	43859	1896	1
1	43910	1900	1
1	44013	1904	1
1	44114	1908	1
1	44215	1912	1
1	44318	1916	1
1	44369	1920	1
1	44470	1924	1
1	44574	1928	1
1	44676	1932	1
1	44780	1936	1
1	44831	1940	1
1	44932	1944	1
1	45035	1948	1
1	45140	1952	1
1	45241	1956	1
1	45292	1960	1
1	45393	1964	1
1	45498	1968	1
1	45601	1972	1
1	45703	1976	1
1	45754	1980	1
1	45858	1984	1
1	45959	1988	1
1	46060	1992	1
1	46162	1996	1
1	46213	2000	1
1	46318	2004	1
1	46421	2008	1
1	46523	2012	1
1	46626	2016	1
1	46677	2020	1
1	46779	2024	1
1	46883	2028	1
1	46986	2032	1
1	47088	2036	1
1	47139	2040	1
1	47242	2044	1
1	47344	2048	1
1	47450	2052	1
1	47552	2056	1
1	47603	2060	1
1	47704	2064	1
1	47807	2068	1
1	47909	2072	1
1	48012	2076	1
1	48063	2080	1
1	48166	2084	1
1	48269	2088	1
1	48371	2092	1
1	48475	2096	1
1	48526	2100	1
1	48628	2104	1
1	48730	2108	1
1	48835	2112	1
1	48937	2116	1
1	48988	2120	1
1	49089	2124	1
1	49192	2128	1
1	49294	2132	1
1	49396	2136	1
1	49447	2140	1
1	49549	2144	1
1	49650	2148	1
1	49752	2152	1
1	49855	2156	1
1	49906	2160	1
1	50008	2164	1
1	50112	2168	1
1	50213	2172	1
1	50314	2176	1
1	50365	2180	1
1	50469	2184	1
1	50572	2188	1
1	50674	2192	1
1	50777	2196	1
1	50828	2200	1
1	50931	2204	1
1	51034	2208	1
1	51135	2212	1
1	51240	2216	1
1	51291	2220	1
1	51391	2224	1
1	51493	2228	1
1	51597	2232	1
1	51700	2236	1
1	51751	2240	1
1	51851	2244	1
1	51953	2248	1
1	52056	2252	1
1	52161	2256	1
1	52212	2260	1
1	52312	2264	1
1	52414	2268	1
1	52520	2272	1
1	52624	2276	1
1	52675	2280	1
1	52776	2284	1
1	52879	2288	1
1	52983	2292	1
1	53087	2296	1
1	53138	2300	1
1	53238	2304	1
1	53340	2308	1
1	53446	2312	1
1	53548	2316	1
1	53599	2320	1
1	53700	2324	1
1	53803	2328	1
1	53904	2332	1
1	54008	2336	1
1	54059	2340	1
1	54159	2344	1
1	54261	2348	1
1	54365	2352	1
1	54468	2356	1
1	54519	2360	1
1	54619	2364	1
1	54722	2368	1
1	54825	2372	1
1	54926	2376	1
1	54977	2380	1
1	55078	2384	1
1	55182	2388	1
1	55284	2392	1
1	55387	2396	1
1	55438	2400	1
1	55540	2404	1
1	55643	2408	1
1	55746	2412	1
1	55851	2416	1
1	55902	2420	1
1	56003	2424	1
1	56108	2428	1
1	56210	2432	1
1	56314	2436	1
1	56365	2440	1
1	56468	2444	1
1	56570	2448	1
1	56674	2452	1
1	56778	2456	1
1	56829	2460	1
1	56930	2464	1
1	57034	2468	1
1	57137	2472	1
1	57239	2476	1
1	57290	2480	1
1	57392	2484	1
1	57497	2488	1
1	57598	2492	1
1	57700	2496	1
1	57751	2500	1
1	57853	2504	1
1	57958	2508	1
1	58060	2512	1
1	58165	2516	1
1	58216	2520	1
1	58317	2524	1
1	58421	2528	1
1	58523	2532	1
1	58629	2536	1
1	58680	2540	1
1	58783	2544	1
1	58885	2548	1
1	58989	2552	1
1	59091	2556	1
1	59142	2560	1
1	59244	2564	1
1	59351	2568	1
1	59452	2572	1
1	59553	2576	1
1	59604	2580	1
1	59705	2584	1
1	59808	2588	1
1	59915	2592	1
1	60018	2596	1
1	60069	2600	1
1	60170	2604	1
1	60273	2608	1
1	60375	2612	1
1	60478	2616	1
1	60529	2620	1
1	60630	2624	1
1	60734	2628	1
1	60835	2632	1
1	60936	2636	1
1	60987	2640	1
1	61088	2644	1
1	61191	2648	1
1	61296	2652	1
1	61398	2656	1
1	61449	2660	1
1	61550	2664	1
1	61653	2668	1
1	61754	2672	1
1	61857	2676	1
1	61908	2680	1
1	62010	2684	1
1	62113	2688	1
1	62215	2692	1
1	62319	2696	1
1	62370	2700	1
1	62471	2704	1
1	62575	2708	1
1	62676	2712	1
1	62778	2716	1
1	62829	2720	1
1	62932	2724	1
1	63033	2728	1
1	63137	2732	1
1	63238	2736	1
1	63289	2740	1
1	63389	2744	1
1	63492	2748	1
1	63595	2752	1
1	63697	2756	1
1	63748	2760	1
1	63852	2764	1
1	63954	2768	1
1	64058	2772	1
1	64161	2776	1
1	64212	2780	1
1	64313	2784	1
1	64416	2788	1
1	64520	2792	1
1	64622	2796	1
1	64673	2800	1
1	64776	2804	1
1	64878	2808	1
1	64983	2812	1
1	65085	2816	1
1	65136	2820	1
1	65239	2824	1
1	65340	2828	1
1	65441	2832	1
1	65543	2836	1
1	65594	2840	1
1	65697	2844	1
1	65800	2848	1
1	65901	2852	1
1	66004	2856	1
1	66055	2860	1
1	66157	2864	1
1	66258	2868	1
1	66359	2872	1
1	66461	2876	1
1	66512	2880	1
1	66614	2884	1
1	66718	2888	1
1	66820	2892	1
1	66923	2896	1
1	66974	2900	1
1	67078	2904	1
1	67181	2908	1
1	67282	2912	1
1	67385	2916	1
1	67436	2920	1
1	67536	2924	1
1	67641	2928	1
1	67742	2932	1
1	67843	2936	1
1	67894	2940	1
1	67995	2944	1
1	68100	2948	1
1	68202	2952	1
1	68305	2956	1
1	68356	2960	1
1	68458	2964	1
1	68563	2968	1
1	68665	2972	1
1	68768	2976	1
1	68819	2980	1
1	68922	2984	1
1	69024	2988	1
1	69128	2992	1
1	69230	2996	1
1	69281	3000	1
1	69382	3004	1
1	69484	3008	1
1	69588	3012	1
1	69692	3016	1
1	69743	3020	1
1	69843	3024	1
1	69944	3028	1
1	70047	3032	1
1	70148	3036	1
1	70199	3040	1
1	70299	3044	1
1	70402	3048	1
1	70503	3052	1
1	70606	3056	1
1	70657	3060	1
1	70758	3064	1
1	70861	3068	1
1	70964	3072	1
1	71068	3076	1
1	71119	3080	1
1	71220	3084	1
1	71324	3088	1
1	71427	3092	1
1	71528	3096	1
1	71579	3100	1
1	71679	3104	1
1	71781	3108	1
1	71885	3112	1
1	71986	3116	1
1	72037	3120	1
1	72137	3124	1
1	72238	3128	1
1	72339	3132	1
1	72441	3136	1
1	72492	3140	1
1	72595	3144	1
1	72697	3148	1
1	72800	3152	1
1	72904	3156	1
1	72955	3160	1
1	73055	3164	1
1	73157	3168	1
1	73260	3172	1
1	73363	3176	1
1	73414	3180	1
1	73517	3184	1
1	73619	3188	1
1	73722	3192	1
1	73825	3196	1
1	73876	3200	1
1	73979	3204	1
1	74081	3208	1
1	74185	3212	1
1	74286	3216	1
1	74337	3220	1
1	74437	3224	1
1	74538	3228	1
1	74639	3232	1
1	74741	3236	1
1	74792	3240	1
1	74896	3244	1
1	74998	3248	1
1	75101	3252	1
1	75205	3256	1
1	75256	3260	1
1	75358	3264	1
1	75459	3268	1
1	75563	3272	1
1	75664	3276	1
1	75715	3280	1
1	75815	3284	1
1	75917	3288	1
1	76022	3292	1
1	76123	3296	1
1	76174	3300	1
1	76275	3304	1
1	76380	3308	1
1	76482	3312	1
1	76586	3316	1
1	76637	3320	1
1	76738	3324	1
1	76841	3328	1
1	76947	3332	1
1	77048	3336	1
1	77099	3340	1
1	77199	3344	1
1	77302	3348	1
1	77405	3352	1
1	77506	3356	1
1	77557	3360	1
1	77657	3364	1
1	77759	3368	1
1	77861	3372	1
1	77962	3376	1
1	78013	3380	1
1	78114	3384	1
1	78216	3388	1
1	78318	3392	1
1	78421	3396	1
1	78472	3400	1
1	78574	3404	1
1	78677	3408	1
1	78781	3412	1
1	78882	3416	1
1	78933	3420	1
1	79034	3424	1
1	79138	3428	1
1	79240	3432	1
1	79346	3436	1
1	79397	3440	1
1	79498	3444	1
1	79601	3448	1
1	79704	3452	1
1	79807	3456	1
1	79858	3460	1
1	79962	3464	1
1	80063	3468	1
1	80164	3472	1
1	80266	3476	1
1	80317	3480	1
1	80419	3484	1
1	80522	3488	1
1	80626	3492	1
1	80727	3496	1
1	80778	3500	1
1	80880	3504	1
1	80982	3508	1
1	81086	3512	1
1	81188	3516	1
1	81239	3520	1
1	81341	3524	1
1	81445	3528	1
1	81547	3532	1
1	81651	3536	1
1	81702	3540	1
1	81804	3544	1
1	81907	3548	1
1	82009	3552	1
1	82112	3556	1
1	82163	3560	1
1	82266	3564	1
1	82368	3568	1
1	82471	3572	1
1	82574	3576	1
1	82625	3580	1
1	82726	3584	1
1	82830	3588	1
1	82932	3592	1
1	83036	3596	1
1	83087	3600	1
2	3	4	1
2	145	8	1
2	253	12	1
2	356	16	1
2	407	20	1
2	520	24	1
2	629	28	1
2	738	32	1
2	853	36	1
2	904	40	1
2	1016	44	1
2	1120	48	1
2	1226	52	1
2	1333	56	1
2	1384	60	1
2	1493	64	1
2	1600	68	1
2	1705	72	1
2	1815	76	1
2	1866	80	1
2	1971	84	1
2	2077	88	1
2	2181	92	1
2	2287	96	1
2	2338	100	1
2	2441	104	1
2	2548	108	1
2	2652	112	1
2	2757	116	1
2	2808	120	1
2	2911	124	1
2	3012	128	1
2	3119	132	1
2	3222	136	1
2	3273	140	1
2	3376	144	1
2	3481	148	1
2	3589	152	1
2	3694	156	1
2	3745	160	1
2	3846	164	1
2	3953	168	1
2	4054	172	1
2	4157	176	1
2	4208	180	1
2	4310	184	1
2	4413	188	1
2	4515	192	1
2	4621	196	1
2	4672	200	1
2	4773	204	1
2	4877	208	1
2	4979	212	1
2	5084	216	1
2	5135	220	1
2	5237	224	1
2	5339	228	1
2	5445	232	1
2	5547	236	1
2	5598	240	1
2	5702	244	1
2	5807	248	1
2	5911	252	1
2	6012	256	1
2	6063	260	1
2	6164	264	1
2	6272	268	1
2	6376	272	1
2	6480	276	1
2	6531	280	1
2	6631	284	1
2	6733	288	1
2	6840	292	1
2	6946	296	1
2	6997	300	1
2	7099	304	1
2	7201	308	1
2	7306	312	1
2	7409	316	1
2	7460	320	1
2	7563	324	1
2	7667	328	1
2	7771	332	1
2	7873	336	1
2	7924	340	1
2	8027	344	1
2	8131	348	1
2	8234	352	1
2	8335	356	1
2	8386	360	1
2	8488	364	1
2	8594	368	1
2	8700	372	1
2	8802	376	1
2	8853	380	1
2	8957	384	1
2	9059	388	1
2	9163	392	1
2	9266	396	1
2	9317	400	1
2	9419	404	1
2	9520	408	1
2	9621	412	1
2	9725	416	1
2	9776	420	1
2	9877	424	1
2	9980	428	1
2	10085	432	1
2	10188	436	1
2	10239	440	1
2	10339	444	1
2	10441	448	1
2	10547	452	1
2	10649	456	1
2	10700	460	1
2	10803	464	1
2	10904	468	1
2	11006	472	1
2	11109	476	1
2	11160	480	1
2	11264	484	1
2	11369	488	1
2	11471	492	1
2	11576	496	1
2	11627	500	1
2	11728	504	1
2	11831	508	1
2	11935	512	1
2	12040	516	1
2	12091	520	1
2	12193	524	1
2	12298	528	1
2	12400	532	1
2	12503	536	1
2	12554	540	1
2	12659	544	1
2	12762	548	1
2	12865	552	1
2	12967	556	1
2	13018	560	1
2	13121	564	1
2	13224	568	1
2	13326	572	1
2	13430	576	1
2	13481	580	1
2	13582	584	1
2	13687	588	1
2	13790	592	1
2	13892	596	1
2	13943	600	1
2	14048	604	1
2	14149	608	1
2	14250	612	1
2	14355	616	1
2	14406	620	1
2	14506	624	1
2	14608	628	1
2	14714	632	1
2	14817	636	1
2	14868	640	1
2	14968	644	1
2	15076	648	1
2	15177	652	1
2	15279	656	1
2	15330	660	1
2	15434	664	1
2	15537	668	1
2	15638	672	1
2	15740	676	1
2	15791	680	1
2	15895	684	1
2	15998	688	1
2	16100	692	1
2	16204	696	1
2	16255	700	1
2	16357	704	1
2	16460	708	1
2	16562	712	1
2	16665	716	1
2	16716	720	1
2	16819	724	1
2	16922	728	1
2	17024	732	1
2	17129	736	1
2	17180	740	1
2	17281	744	1
2	17384	748	1
2	17486	752	1
2	17590	756	1
2	17641	760	1
2	17741	764	1
2	17843	768	1
2	17947	772	1
2	18052	776	1
2	18103	780	1
2	18205	784	1
2	18309	788	1
2	18411	792	1
2	18515	796	1
2	18566	800	1
2	18667	804	1
2	18771	808	1
2	18873	812	1
2	18977	816	1
2	19028	820	1
2	19130	824	1
2	19232	828	1
2	19338	832	1
2	19441	836	1
2	19492	840	1
2	19593	844	1
2	19697	848	1
2	19799	852	1
2	19904	856	1
2	19955	860	1
2	20057	864	1
2	20160	868	1
2	20262	872	1
2	20366	876	1
2	20417	880	1
2	20520	884	1
2	20624	888	1
2	20725	892	1
2	20827	896	1
2	20878	900	1
2	20980	904	1
2	21083	908	1
2	21186	912	1
2	21289	916	1
2	21340	920	1
2	21442	924	1
2	21545	928	1
2	21649	932	1
2	21751	936	1
2	21802	940	1
2	21904	944	1
2	22006	948	1
2	22108	952	1
2	22212	956	1
2	22263	960	1
2	22364	964	1
2	22467	968	1
2	22573	972	1
2	22677	976	1
2	22728	980	1
2	22828	984	1
2	22930	988	1
2	23033	992	1
2	23137	996	1
2	23188	1000	1
2	23289	1004	1
2	23394	1008	1
2	23495	1012	1
2	23596	1016	1
2	23647	1020	1
2	23748	1024	1
2	23852	1028	1
2	23956	1032	1
2	24058	1036	1
2	24109	1040	1
2	24212	1044	1
2	24313	1048	1
2	24415	1052	1
2	24518	1056	1
2	24569	1060	1
2	24672	1064	1
2	24774	1068	1
2	24877	1072	1
2	24981	1076	1
2	25032	1080	1
2	25133	1084	1
2	25236	1088	1
2	25340	1092	1
2	25443	1096	1
2	25494	1100	1
2	25594	1104	1
2	25697	1108	1
2	25801	1112	1
2	25903	1116	1
2	25954	1120	1
2	26057	1124	1
2	26158	1128	1
2	26261	1132	1
2	26363	1136	1
2	26414	1140	1
2	26518	1144	1
2	26620	1148	1
2	26724	1152	1
2	26825	1156	1
2	26876	1160	1
2	26976	1164	1
2	27079	1168	1
2	27181	1172	1
2	27284	1176	1
2	27335	1180	1
2	27438	1184	1
2	27539	1188	1
2	27642	1192	1
2	27743	1196	1
2	27794	1200	1
2	27895	1204	1
2	27999	1208	1
2	28102	1212	1
2	28203	1216	1
2	28254	1220	1
2	28354	1224	1
2	28456	1228	1
2	28559	1232	1
2	28663	1236	1
2	28714	1240	1
2	28816	1244	1
2	28917	1248	1
2	29019	1252	1
2	29123	1256	1
2	29174	1260	1
2	29275	1264	1
2	29379	1268	1
2	29480	1272	1
2	29583	1276	1
2	29634	1280	1
2	29734	1284	1
2	29836	1288	1
2	29940	1292	1
2	30041	1296	1
2	30092	1300	1
2	30193	1304	1
2	30300	1308	1
2	30402	1312	1
2	30505	1316	1
2	30556	1320	1
2	30657	1324	1
2	30760	1328	1
2	30863	1332	1
2	30966	1336	1
2	31017	1340	1
2	31117	1344	1
2	31219	1348	1
2	31322	1352	1
2	31426	1356	1
2	31477	1360	1
2	31577	1364	1
2	31680	1368	1
2	31782	1372	1
2	31887	1376	1
2	31938	1380	1
2	32039	1384	1
2	32142	1388	1
2	32246	1392	1
2	32348	1396	1
2	32399	1400	1
2	32502	1404	1
2	32603	1408	1
2	32705	1412	1
2	32810	1416	1
2	32861	1420	1
2	32963	1424	1
2	33064	1428	1
2	33165	1432	1
2	33266	1436	1
2	33317	1440	1
2	33418	1444	1
2	33521	1448	1
2	33626	1452	1
2	33727	1456	1
2	33778	1460	1
2	33878	1464	1
2	33979	1468	1
2	34083	1472	1
2	34185	1476	1
2	34236	1480	1
2	34338	1484	1
2	34442	1488	1
2	34543	1492	1
2	34645	1496	1
2	34696	1500	1
2	34798	1504	1
2	34903	1508	1
2	35005	1512	1
2	35109	1516	1
2	35160	1520	1
2	35263	1524	1
2	35364	1528	1
2	35466	1532	1
2	35570	1536	1
2	35621	1540	1
2	35721	1544	1
2	35822	1548	1
2	35924	1552	1
2	36027	1556	1
2	36078	1560	1
2	36181	1564	1
2	36284	1568	1
2	36385	1572	1
2	36486	1576	1
2	36537	1580	1
2	36638	1584	1
2	36745	1588	1
2	36846	1592	1
2	36948	1596	1
2	36999	1600	1
2	37101	1604	1
2	37205	1608	1
2	37306	1612	1
2	37407	1616	1
2	37458	1620	1
2	37559	1624	1
2	37663	1628	1
2	37765	1632	1
2	37870	1636	1
2	37921	1640	1
2	38022	1644	1
2	38126	1648	1
2	38227	1652	1
2	38330	1656	1
2	38381	1660	1
2	38483	1664	1
2	38585	1668	1
2	38689	1672	1
2	38792	1676	1
2	38843	1680	1
2	38944	1684	1
2	39047	1688	1
2	39151	1692	1
2	39254	1696	1
2	39305	1700	1
2	39407	1704	1
2	39510	1708	1
2	39611	1712	1
2	39713	1716	1
2	39764	1720	1
2	39867	1724	1
2	39969	1728	1
2	40074	1732	1
2	40176	1736	1
2	40227	1740	1
2	40329	1744	1
2	40433	1748	1
2	40535	1752	1
2	40639	1756	1
2	40690	1760	1
2	40790	1764	1
2	40893	1768	1
2	40995	1772	1
2	41100	1776	1
2	41151	1780	1
2	41252	1784	1
2	41355	1788	1
2	41460	1792	1
2	41561	1796	1
2	41612	1800	1
2	41714	1804	1
2	41815	1808	1
2	41916	1812	1
2	42018	1816	1
2	42069	1820	1
2	42173	1824	1
2	42275	1828	1
2	42379	1832	1
2	42480	1836	1
2	42531	1840	1
2	42631	1844	1
2	42733	1848	1
2	42837	1852	1
2	42941	1856	1
2	42992	1860	1
2	43092	1864	1
2	43194	1868	1
2	43297	1872	1
2	43399	1876	1
2	43450	1880	1
2	43552	1884	1
2	43654	1888	1
2	43758	1892	1
2	43860	1896	1
2	43911	1900	1
2	44014	1904	1
2	44115	1908	1
2	44216	1912	1
2	44319	1916	1
2	44370	1920	1
2	44471	1924	1
2	44575	1928	1
2	44677	1932	1
2	44781	1936	1
2	44832	1940	1
2	44933	1944	1
2	45036	1948	1
2	45141	1952	1
2	45242	1956	1
2	45293	1960	1
2	45394	1964	1
2	45499	1968	1
2	45602	1972	1
2	45704	1976	1
2	45755	1980	1
2	45859	1984	1
2	45960	1988	1
2	46061	1992	1
2	46163	1996	1
2	46214	2000	1
2	46319	2004	1
2	46422	2008	1
2	46524	2012	1
2	46627	2016	1
2	46678	2020	1
2	46780	2024	1
2	46884	2028	1
2	46987	2032	1
2	47089	2036	1
2	47140	2040	1
2	47243	2044	1
2	47345	2048	1
2	47451	2052	1
2	47553	2056	1
2	47604	2060	1
2	47705	2064	1
2	47808	2068	1
2	47910	2072	1
2	48013	2076	1
2	48064	2080	1
2	48167	2084	1
2	48270	2088	1
2	48372	2092	1
2	48476	2096	1
2	48527	2100	1
2	48629	2104	1
2	48731	2108	1
2	48836	2112	1
2	48938	2116	1
2	48989	2120	1
2	49090	2124	1
2	49193	2128	1
2	49295	2132	1
2	49397	2136	1
2	49448	2140	1
2	49550	2144	1
2	49651	2148	1
2	49753	2152	1
2	49856	2156	1
2	49907	2160	1
2	50009	2164	1
2	50113	2168	1
2	50214	2172	1
2	50315	2176	1
2	50366	2180	1
2	50470	2184	1
2	50573	2188	1
2	50675	2192	1
2	50778	2196	1
2	50829	2200	1
2	50932	2204	1
2	51035	2208	1
2	51136	2212	1
2	51241	2216	1
2	51292	2220	1
2	51392	2224	1
2	51494	2228	1
2	51598	2232	1
2	51701	2236	1
2	51752	2240	1
2	51852	2244	1
2	51954	2248	1
2	52057	2252	1
2	52162	2256	1
2	52213	2260	1
2	52313	2264	1
2	52415	2268	1
2	52521	2272	1
2	52625	2276	1
2	52676	2280	1
2	52777	2284	1
2	52880	2288	1
2	52984	2292	1
2	53088	2296	1
2	53139	2300	1
2	53239	2304	1
2	53341	2308	1
2	53447	2312	1
2	53549	2316	1
2	53600	2320	1
2	53701	2324	1
2	53804	2328	1
2	53905	2332	1
2	54009	2336	1
2	54060	2340	1
2	54160	2344	1
2	54262	2348	1
2	54366	2352	1
2	54469	2356	1
2	54520	2360	1
2	54620	2364	1
2	54723	2368	1
2	54826	2372	1
2	54927	2376	1
2	54978	2380	1
2	55079	2384	1
2	55183	2388	1
2	55285	2392	1
2	55388	2396	1
2	55439	2400	1
2	55541	2404	1
2	55644	2408	1
2	55747	2412	1
2	55852	2416	1
2	55903	2420	1
2	56004	2424	1
2	56109	2428	1
2	56211	2432	1
2	56315	2436	1
2	56366	2440	1
2	56469	2444	1
2	56571	2448	1
2	56675	2452	1
2	56779	2456	1
2	56830	2460	1
2	56931	2464	1
2	57035	2468	1
2	57138	2472	1
2	57240	2476	1
2	57291	2480	1
2	57393	2484	1
2	57498	2488	1
2	57599	2492	1
2	57701	2496	1
2	57752	2500	1
2	57854	2504	1
2	57959	2508	1
2	58061	2512	1
2	58166	2516	1
2	58217	2520	1
2	58318	2524	1
2	58422	2528	1
2	58524	2532	1
2	58630	2536	1
2	58681	2540	1
2	58784	2544	1
2	58886	2548	1
2	58990	2552	1
2	59092	2556	1
2	59143	2560	1
2	59245	2564	1
2	59352	2568	1
2	59453	2572	1
2	59554	2576	1
2	59605	2580	1
2	59706	2584	1
2	59809	2588	1
2	59916	2592	1
2	60019	2596	1
2	60070	2600	1
2	60171	2604	1
2	60274	2608	1
2	60376	2612	1
2	60479	2616	1
2	60530	2620	1
2	60631	2624	1
2	60735	2628	1
2	60836	2632	1
2	60937	2636	1
2	60988	2640	1
2	61089	2644	1
2	61192	2648	1
2	61297	2652	1
2	61399	2656	1
2	61450	2660	1
2	61551	2664	1
2	61654	2668	1
2	61755	2672	1
2	61858	2676	1
2	61909	2680	1
2	62011	2684	1
2	62114	2688	1
2	62216	2692	1
2	62320	2696	1
2	62371	2700	1
2	62472	2704	1
2	62576	2708	1
2	62677	2712	1
2	62779	2716	1
2	62830	2720	1
2	62933	2724	1
2	63034	2728	1
2	63138	2732	1
2	63239	2736	1
2	63290	2740	1
2	63390	2744	1
2	63493	2748	1
2	63596	2752	1
2	63698	2756	1
2	63749	2760	1
2	63853	2764	1
2	63955	2768	1
2	64059	2772	1
2	64162	2776	1
2	64213	2780	1
2	64314	2784	1
2	64417	2788	1
2	64521	2792	1
2	64623	2796	1
2	64674	2800	1
2	64777	2804	1
2	64879	2808	1
2	64984	2812	1
2	65086	2816	1
2	65137	2820	1
2	65240	2824	1
2	65341	2828	1
2	65442	2832	1
2	65544	2836	1
2	65595	2840	1
2	65698	2844	1
2	65801	2848	1
2	65902	2852	1
2	66005	2856	1
2	66056	2860	1
2	66158	2864	1
2	66259	2868	1
2	66360	2872	1
2	66462	2876	1
2	66513	2880	1
2	66615	2884	1
2	66719	2888	1
2	66821	2892	1
2	66924	2896	1
2	66975	2900	1
2	67079	2904	1
2	67182	2908	1
2	67283	2912	1
2	67386	2916	1
2	67437	2920	1
2	67537	2924	1
2	67642	2928	1
2	67743	2932	1
2	67844	2936	1
2	67895	2940	1
2	67996	2944	1
2	68101	2948	1
2	68203	2952	1
2	68306	2956	1
2	68357	2960	1
2	68459	2964	1
2	68564	2968	1
2	68666	2972	1
2	68769	2976	1
2	68820	2980	1
2	68923	2984	1
2	69025	2988	1
2	69129	2992	1
2	69231	2996	1
2	69282	3000	1
2	69383	3004	1
2	69485	3008	1
2	69589	3012	1
2	69693	3016	1
2	69744	3020	1
2	69844	3024	1
2	69945	3028	1
2	70048	3032	1
2	70149	3036	1
2	70200	3040	1
2	70300	3044	1
2	70403	3048	1
2	70504	3052	1
2	70607	3056	1
2	70658	3060	1
2	70759	3064	1
2	70862	3068	1
2	70965	3072	1
2	71069	3076	1
2	71120	3080	1
2	71221	3084	1
2	71325	3088	1
2	71428	3092	1
2	71529	3096	1
2	71580	3100	1
2	71680	3104	1
2	71782	3108	1
2	71886	3112	1
2	71987	3116	1
2	72038	3120	1
2	72138	3124	1
2	72239	3128	1
2	72340	3132	1
2	72442	3136	1
2	72493	3140	1
2	72596	3144	1
2	72698	3148	1
2	72801	3152	1
2	72905	3156	1
2	72956	3160	1
2	73056	3164	1
2	73158	3168	1
2	73261	3172	1
2	73364	3176	1
2	73415	3180	1
2	73518	3184	1
2	73620	3188	1
2	73723	3192	1
2	73826	3196	1
2	73877	3200	1
2	73980	3204	1
2	74082	3208	1
2	74186	3212	1
2	74287	3216	1
2	74338	3220	1
2	74438	3224	1
2	74539	3228	1
2	74640	3232	1
2	74742	3236	1
2	74793	3240	1
2	74897	3244	1
2	74999	3248	1
2	75102	3252	1
2	75206	3256	1
2	75257	3260	1
2	75359	3264	1
2	75460	3268	1
2	75564	3272	1
2	75665	3276	1
2	75716	3280	1
2	75816	3284	1
2	75918	3288	1
2	76023	3292	1
2	76124	3296	1
2	76175	3300	1
2	76276	3304	1
2	76381	3308	1
2	76483	3312	1
2	76587	3316	1
2	76638	3320	1
2	76739	3324	1
2	76842	3328	1
2	76948	3332	1
2	77049	3336	1
2	77100	3340	1
2	77200	3344	1
2	77303	3348	1
2	77406	3352	1
2	77507	3356	1
2	77558	3360	1
2	77658	3364	1
2	77760	3368	1
2	77862	3372	1
2	77963	3376	1
2	78014	3380	1
2	78115	3384	1
2	78217	3388	1
2	78319	3392	1
2	78422	3396	1
2	78473	3400	1
2	78575	3404	1
2	78678	3408	1
2	78782	3412	1
2	78883	3416	1
2	78934	3420	1
2	79035	3424	1
2	79139	3428	1
2	79241	3432	1
2	79347	3436	1
2	79398	3440	1
2	79499	3444	1
2	79602	3448	1
2	79705	3452	1
2	79808	3456	1
2	79859	3460	1
2	79963	3464	1
2	80064	3468	1
2	80165	3472	1
2	80267	3476	1
2	80318	3480	1
2	80420	3484	1
2	80523	3488	1
2	80627	3492	1
2	80728	3496	1
2	80779	3500	1
2	80881	3504	1
2	80983	3508	1
2	81087	3512	1
2	81189	3516	1
2	81240	3520	1
2	81342	3524	1
2	81446	3528	1
2	81548	3532	1
2	81652	3536	1
2	81703	3540	1
2	81805	3544	1
2	81908	3548	1
2	82010	3552	1
2	82113	3556	1
2	82164	3560	1
2	82267	3564	1
2	82369	3568	1
2	82472	3572	1
2	82575	3576	1
2	82626	3580	1
2	82727	3584	1
2	82831	3588	1
2	82933	3592	1
2	83037	3596	1
2	83088	3600	1
3	4	4	1
3	146	8	1
3	254	12	1
3	357	16	1
3	408	20	1
3	521	24	1
3	630	28	1
3	739	32	1
3	854	36	1
3	905	40	1
3	1017	44	1
3	1121	48	1
3	1227	52	1
3	1334	56	1
3	1385	60	1
3	1494	64	1
3	1601	68	1
3	1706	72	1
3	1816	76	1
3	1867	80	1
3	1972	84	1
3	2078	88	1
3	2182	92	1
3	2288	96	1
3	2339	100	1
3	2442	104	1
3	2549	108	1
3	2653	112	1
3	2758	116	1
3	2809	120	1
3	2912	124	1
3	3013	128	1
3	3120	132	1
3	3223	136	1
3	3274	140	1
3	3377	144	1
3	3482	148	1
3	3590	152	1
3	3695	156	1
3	3746	160	1
3	3847	164	1
3	3954	168	1
3	4055	172	1
3	4158	176	1
3	4209	180	1
3	4311	184	1
3	4414	188	1
3	4516	192	1
3	4622	196	1
3	4673	200	1
3	4774	204	1
3	4878	208	1
3	4980	212	1
3	5085	216	1
3	5136	220	1
3	5238	224	1
3	5340	228	1
3	5446	232	1
3	5548	236	1
3	5599	240	1
3	5703	244	1
3	5808	248	1
3	5912	252	1
3	6013	256	1
3	6064	260	1
3	6165	264	1
3	6273	268	1
3	6377	272	1
3	6481	276	1
3	6532	280	1
3	6632	284	1
3	6734	288	1
3	6841	292	1
3	6947	296	1
3	6998	300	1
3	7100	304	1
3	7202	308	1
3	7307	312	1
3	7410	316	1
3	7461	320	1
3	7564	324	1
3	7668	328	1
3	7772	332	1
3	7874	336	1
3	7925	340	1
3	8028	344	1
3	8132	348	1
3	8235	352	1
3	8336	356	1
3	8387	360	1
3	8489	364	1
3	8595	368	1
3	8701	372	1
3	8803	376	1
3	8854	380	1
3	8958	384	1
3	9060	388	1
3	9164	392	1
3	9267	396	1
3	9318	400	1
3	9420	404	1
3	9521	408	1
3	9622	412	1
3	9726	416	1
3	9777	420	1
3	9878	424	1
3	9981	428	1
3	10086	432	1
3	10189	436	1
3	10240	440	1
3	10340	444	1
3	10442	448	1
3	10548	452	1
3	10650	456	1
3	10701	460	1
3	10804	464	1
3	10905	468	1
3	11007	472	1
3	11110	476	1
3	11161	480	1
3	11265	484	1
3	11370	488	1
3	11472	492	1
3	11577	496	1
3	11628	500	1
3	11729	504	1
3	11832	508	1
3	11936	512	1
3	12041	516	1
3	12092	520	1
3	12194	524	1
3	12299	528	1
3	12401	532	1
3	12504	536	1
3	12555	540	1
3	12660	544	1
3	12763	548	1
3	12866	552	1
3	12968	556	1
3	13019	560	1
3	13122	564	1
3	13225	568	1
3	13327	572	1
3	13431	576	1
3	13482	580	1
3	13583	584	1
3	13688	588	1
3	13791	592	1
3	13893	596	1
3	13944	600	1
3	14049	604	1
3	14150	608	1
3	14251	612	1
3	14356	616	1
3	14407	620	1
3	14507	624	1
3	14609	628	1
3	14715	632	1
3	14818	636	1
3	14869	640	1
3	14969	644	1
3	15077	648	1
3	15178	652	1
3	15280	656	1
3	15331	660	1
3	15435	664	1
3	15538	668	1
3	15639	672	1
3	15741	676	1
3	15792	680	1
3	15896	684	1
3	15999	688	1
3	16101	692	1
3	16205	696	1
3	16256	700	1
3	16358	704	1
3	16461	708	1
3	16563	712	1
3	16666	716	1
3	16717	720	1
3	16820	724	1
3	16923	728	1
3	17025	732	1
3	17130	736	1
3	17181	740	1
3	17282	744	1
3	17385	748	1
3	17487	752	1
3	17591	756	1
3	17642	760	1
3	17742	764	1
3	17844	768	1
3	17948	772	1
3	18053	776	1
3	18104	780	1
3	18206	784	1
3	18310	788	1
3	18412	792	1
3	18516	796	1
3	18567	800	1
3	18668	804	1
3	18772	808	1
3	18874	812	1
3	18978	816	1
3	19029	820	1
3	19131	824	1
3	19233	828	1
3	19339	832	1
3	19442	836	1
3	19493	840	1
3	19594	844	1
3	19698	848	1
3	19800	852	1
3	19905	856	1
3	19956	860	1
3	20058	864	1
3	20161	868	1
3	20263	872	1
3	20367	876	1
3	20418	880	1
3	20521	884	1
3	20625	888	1
3	20726	892	1
3	20828	896	1
3	20879	900	1
3	20981	904	1
3	21084	908	1
3	21187	912	1
3	21290	916	1
3	21341	920	1
3	21443	924	1
3	21546	928	1
3	21650	932	1
3	21752	936	1
3	21803	940	1
3	21905	944	1
3	22007	948	1
3	22109	952	1
3	22213	956	1
3	22264	960	1
3	22365	964	1
3	22468	968	1
3	22574	972	1
3	22678	976	1
3	22729	980	1
3	22829	984	1
3	22931	988	1
3	23034	992	1
3	23138	996	1
3	23189	1000	1
3	23290	1004	1
3	23395	1008	1
3	23496	1012	1
3	23597	1016	1
3	23648	1020	1
3	23749	1024	1
3	23853	1028	1
3	23957	1032	1
3	24059	1036	1
3	24110	1040	1
3	24213	1044	1
3	24314	1048	1
3	24416	1052	1
3	24519	1056	1
3	24570	1060	1
3	24673	1064	1
3	24775	1068	1
3	24878	1072	1
3	24982	1076	1
3	25033	1080	1
3	25134	1084	1
3	25237	1088	1
3	25341	1092	1
3	25444	1096	1
3	25495	1100	1
3	25595	1104	1
3	25698	1108	1
3	25802	1112	1
3	25904	1116	1
3	25955	1120	1
3	26058	1124	1
3	26159	1128	1
3	26262	1132	1
3	26364	1136	1
3	26415	1140	1
3	26519	1144	1
3	26621	1148	1
3	26725	1152	1
3	26826	1156	1
3	26877	1160	1
3	26977	1164	1
3	27080	1168	1
3	27182	1172	1
3	27285	1176	1
3	27336	1180	1
3	27439	1184	1
3	27540	1188	1
3	27643	1192	1
3	27744	1196	1
3	27795	1200	1
3	27896	1204	1
3	28000	1208	1
3	28103	1212	1
3	28204	1216	1
3	28255	1220	1
3	28355	1224	1
3	28457	1228	1
3	28560	1232	1
3	28664	1236	1
3	28715	1240	1
3	28817	1244	1
3	28918	1248	1
3	29020	1252	1
3	29124	1256	1
3	29175	1260	1
3	29276	1264	1
3	29380	1268	1
3	29481	1272	1
3	29584	1276	1
3	29635	1280	1
3	29735	1284	1
3	29837	1288	1
3	29941	1292	1
3	30042	1296	1
3	30093	1300	1
3	30194	1304	1
3	30301	1308	1
3	30403	1312	1
3	30506	1316	1
3	30557	1320	1
3	30658	1324	1
3	30761	1328	1
3	30864	1332	1
3	30967	1336	1
3	31018	1340	1
3	31118	1344	1
3	31220	1348	1
3	31323	1352	1
3	31427	1356	1
3	31478	1360	1
3	31578	1364	1
3	31681	1368	1
3	31783	1372	1
3	31888	1376	1
3	31939	1380	1
3	32040	1384	1
3	32143	1388	1
3	32247	1392	1
3	32349	1396	1
3	32400	1400	1
3	32503	1404	1
3	32604	1408	1
3	32706	1412	1
3	32811	1416	1
3	32862	1420	1
3	32964	1424	1
3	33065	1428	1
3	33166	1432	1
3	33267	1436	1
3	33318	1440	1
3	33419	1444	1
3	33522	1448	1
3	33627	1452	1
3	33728	1456	1
3	33779	1460	1
3	33879	1464	1
3	33980	1468	1
3	34084	1472	1
3	34186	1476	1
3	34237	1480	1
3	34339	1484	1
3	34443	1488	1
3	34544	1492	1
3	34646	1496	1
3	34697	1500	1
3	34799	1504	1
3	34904	1508	1
3	35006	1512	1
3	35110	1516	1
3	35161	1520	1
3	35264	1524	1
3	35365	1528	1
3	35467	1532	1
3	35571	1536	1
3	35622	1540	1
3	35722	1544	1
3	35823	1548	1
3	35925	1552	1
3	36028	1556	1
3	36079	1560	1
3	36182	1564	1
3	36285	1568	1
3	36386	1572	1
3	36487	1576	1
3	36538	1580	1
3	36639	1584	1
3	36746	1588	1
3	36847	1592	1
3	36949	1596	1
3	37000	1600	1
3	37102	1604	1
3	37206	1608	1
3	37307	1612	1
3	37408	1616	1
3	37459	1620	1
3	37560	1624	1
3	37664	1628	1
3	37766	1632	1
3	37871	1636	1
3	37922	1640	1
3	38023	1644	1
3	38127	1648	1
3	38228	1652	1
3	38331	1656	1
3	38382	1660	1
3	38484	1664	1
3	38586	1668	1
3	38690	1672	1
3	38793	1676	1
3	38844	1680	1
3	38945	1684	1
3	39048	1688	1
3	39152	1692	1
3	39255	1696	1
3	39306	1700	1
3	39408	1704	1
3	39511	1708	1
3	39612	1712	1
3	39714	1716	1
3	39765	1720	1
3	39868	1724	1
3	39970	1728	1
3	40075	1732	1
3	40177	1736	1
3	40228	1740	1
3	40330	1744	1
3	40434	1748	1
3	40536	1752	1
3	40640	1756	1
3	40691	1760	1
3	40791	1764	1
3	40894	1768	1
3	40996	1772	1
3	41101	1776	1
3	41152	1780	1
3	41253	1784	1
3	41356	1788	1
3	41461	1792	1
3	41562	1796	1
3	41613	1800	1
3	41715	1804	1
3	41816	1808	1
3	41917	1812	1
3	42019	1816	1
3	42070	1820	1
3	42174	1824	1
3	42276	1828	1
3	42380	1832	1
3	42481	1836	1
3	42532	1840	1
3	42632	1844	1
3	42734	1848	1
3	42838	1852	1
3	42942	1856	1
3	42993	1860	1
3	43093	1864	1
3	43195	1868	1
3	43298	1872	1
3	43400	1876	1
3	43451	1880	1
3	43553	1884	1
3	43655	1888	1
3	43759	1892	1
3	43861	1896	1
3	43912	1900	1
3	44015	1904	1
3	44116	1908	1
3	44217	1912	1
3	44320	1916	1
3	44371	1920	1
3	44472	1924	1
3	44576	1928	1
3	44678	1932	1
3	44782	1936	1
3	44833	1940	1
3	44934	1944	1
3	45037	1948	1
3	45142	1952	1
3	45243	1956	1
3	45294	1960	1
3	45395	1964	1
3	45500	1968	1
3	45603	1972	1
3	45705	1976	1
3	45756	1980	1
3	45860	1984	1
3	45961	1988	1
3	46062	1992	1
3	46164	1996	1
3	46215	2000	1
3	46320	2004	1
3	46423	2008	1
3	46525	2012	1
3	46628	2016	1
3	46679	2020	1
3	46781	2024	1
3	46885	2028	1
3	46988	2032	1
3	47090	2036	1
3	47141	2040	1
3	47244	2044	1
3	47346	2048	1
3	47452	2052	1
3	47554	2056	1
3	47605	2060	1
3	47706	2064	1
3	47809	2068	1
3	47911	2072	1
3	48014	2076	1
3	48065	2080	1
3	48168	2084	1
3	48271	2088	1
3	48373	2092	1
3	48477	2096	1
3	48528	2100	1
3	48630	2104	1
3	48732	2108	1
3	48837	2112	1
3	48939	2116	1
3	48990	2120	1
3	49091	2124	1
3	49194	2128	1
3	49296	2132	1
3	49398	2136	1
3	49449	2140	1
3	49551	2144	1
3	49652	2148	1
3	49754	2152	1
3	49857	2156	1
3	49908	2160	1
3	50010	2164	1
3	50114	2168	1
3	50215	2172	1
3	50316	2176	1
3	50367	2180	1
3	50471	2184	1
3	50574	2188	1
3	50676	2192	1
3	50779	2196	1
3	50830	2200	1
3	50933	2204	1
3	51036	2208	1
3	51137	2212	1
3	51242	2216	1
3	51293	2220	1
3	51393	2224	1
3	51495	2228	1
3	51599	2232	1
3	51702	2236	1
3	51753	2240	1
3	51853	2244	1
3	51955	2248	1
3	52058	2252	1
3	52163	2256	1
3	52214	2260	1
3	52314	2264	1
3	52416	2268	1
3	52522	2272	1
3	52626	2276	1
3	52677	2280	1
3	52778	2284	1
3	52881	2288	1
3	52985	2292	1
3	53089	2296	1
3	53140	2300	1
3	53240	2304	1
3	53342	2308	1
3	53448	2312	1
3	53550	2316	1
3	53601	2320	1
3	53702	2324	1
3	53805	2328	1
3	53906	2332	1
3	54010	2336	1
3	54061	2340	1
3	54161	2344	1
3	54263	2348	1
3	54367	2352	1
3	54470	2356	1
3	54521	2360	1
3	54621	2364	1
3	54724	2368	1
3	54827	2372	1
3	54928	2376	1
3	54979	2380	1
3	55080	2384	1
3	55184	2388	1
3	55286	2392	1
3	55389	2396	1
3	55440	2400	1
3	55542	2404	1
3	55645	2408	1
3	55748	2412	1
3	55853	2416	1
3	55904	2420	1
3	56005	2424	1
3	56110	2428	1
3	56212	2432	1
3	56316	2436	1
3	56367	2440	1
3	56470	2444	1
3	56572	2448	1
3	56676	2452	1
3	56780	2456	1
3	56831	2460	1
3	56932	2464	1
3	57036	2468	1
3	57139	2472	1
3	57241	2476	1
3	57292	2480	1
3	57394	2484	1
3	57499	2488	1
3	57600	2492	1
3	57702	2496	1
3	57753	2500	1
3	57855	2504	1
3	57960	2508	1
3	58062	2512	1
3	58167	2516	1
3	58218	2520	1
3	58319	2524	1
3	58423	2528	1
3	58525	2532	1
3	58631	2536	1
3	58682	2540	1
3	58785	2544	1
3	58887	2548	1
3	58991	2552	1
3	59093	2556	1
3	59144	2560	1
3	59246	2564	1
3	59353	2568	1
3	59454	2572	1
3	59555	2576	1
3	59606	2580	1
3	59707	2584	1
3	59810	2588	1
3	59917	2592	1
3	60020	2596	1
3	60071	2600	1
3	60172	2604	1
3	60275	2608	1
3	60377	2612	1
3	60480	2616	1
3	60531	2620	1
3	60632	2624	1
3	60736	2628	1
3	60837	2632	1
3	60938	2636	1
3	60989	2640	1
3	61090	2644	1
3	61193	2648	1
3	61298	2652	1
3	61400	2656	1
3	61451	2660	1
3	61552	2664	1
3	61655	2668	1
3	61756	2672	1
3	61859	2676	1
3	61910	2680	1
3	62012	2684	1
3	62115	2688	1
3	62217	2692	1
3	62321	2696	1
3	62372	2700	1
3	62473	2704	1
3	62577	2708	1
3	62678	2712	1
3	62780	2716	1
3	62831	2720	1
3	62934	2724	1
3	63035	2728	1
3	63139	2732	1
3	63240	2736	1
3	63291	2740	1
3	63391	2744	1
3	63494	2748	1
3	63597	2752	1
3	63699	2756	1
3	63750	2760	1
3	63854	2764	1
3	63956	2768	1
3	64060	2772	1
3	64163	2776	1
3	64214	2780	1
3	64315	2784	1
3	64418	2788	1
3	64522	2792	1
3	64624	2796	1
3	64675	2800	1
3	64778	2804	1
3	64880	2808	1
3	64985	2812	1
3	65087	2816	1
3	65138	2820	1
3	65241	2824	1
3	65342	2828	1
3	65443	2832	1
3	65545	2836	1
3	65596	2840	1
3	65699	2844	1
3	65802	2848	1
3	65903	2852	1
3	66006	2856	1
3	66057	2860	1
3	66159	2864	1
3	66260	2868	1
3	66361	2872	1
3	66463	2876	1
3	66514	2880	1
3	66616	2884	1
3	66720	2888	1
3	66822	2892	1
3	66925	2896	1
3	66976	2900	1
3	67080	2904	1
3	67183	2908	1
3	67284	2912	1
3	67387	2916	1
3	67438	2920	1
3	67538	2924	1
3	67643	2928	1
3	67744	2932	1
3	67845	2936	1
3	67896	2940	1
3	67997	2944	1
3	68102	2948	1
3	68204	2952	1
3	68307	2956	1
3	68358	2960	1
3	68460	2964	1
3	68565	2968	1
3	68667	2972	1
3	68770	2976	1
3	68821	2980	1
3	68924	2984	1
3	69026	2988	1
3	69130	2992	1
3	69232	2996	1
3	69283	3000	1
3	69384	3004	1
3	69486	3008	1
3	69590	3012	1
3	69694	3016	1
3	69745	3020	1
3	69845	3024	1
3	69946	3028	1
3	70049	3032	1
3	70150	3036	1
3	70201	3040	1
3	70301	3044	1
3	70404	3048	1
3	70505	3052	1
3	70608	3056	1
3	70659	3060	1
3	70760	3064	1
3	70863	3068	1
3	70966	3072	1
3	71070	3076	1
3	71121	3080	1
3	71222	3084	1
3	71326	3088	1
3	71429	3092	1
3	71530	3096	1
3	71581	3100	1
3	71681	3104	1
3	71783	3108	1
3	71887	3112	1
3	71988	3116	1
3	72039	3120	1
3	72139	3124	1
3	72240	3128	1
3	72341	3132	1
3	72443	3136	1
3	72494	3140	1
3	72597	3144	1
3	72699	3148	1
3	72802	3152	1
3	72906	3156	1
3	72957	3160	1
3	73057	3164	1
3	73159	3168	1
3	73262	3172	1
3	73365	3176	1
3	73416	3180	1
3	73519	3184	1
3	73621	3188	1
3	73724	3192	1
3	73827	3196	1
3	73878	3200	1
3	73981	3204	1
3	74083	3208	1
3	74187	3212	1
3	74288	3216	1
3	74339	3220	1
3	74439	3224	1
3	74540	3228	1
3	74641	3232	1
3	74743	3236	1
3	74794	3240	1
3	74898	3244	1
3	75000	3248	1
3	75103	3252	1
3	75207	3256	1
3	75258	3260	1
3	75360	3264	1
3	75461	3268	1
3	75565	3272	1
3	75666	3276	1
3	75717	3280	1
3	75817	3284	1
3	75919	3288	1
3	76024	3292	1
3	76125	3296	1
3	76176	3300	1
3	76277	3304	1
3	76382	3308	1
3	76484	3312	1
3	76588	3316	1
3	76639	3320	1
3	76740	3324	1
3	76843	3328	1
3	76949	3332	1
3	77050	3336	1
3	77101	3340	1
3	77201	3344	1
3	77304	3348	1
3	77407	3352	1
3	77508	3356	1
3	77559	3360	1
3	77659	3364	1
3	77761	3368	1
3	77863	3372	1
3	77964	3376	1
3	78015	3380	1
3	78116	3384	1
3	78218	3388	1
3	78320	3392	1
3	78423	3396	1
3	78474	3400	1
3	78576	3404	1
3	78679	3408	1
3	78783	3412	1
3	78884	3416	1
3	78935	3420	1
3	79036	3424	1
3	79140	3428	1
3	79242	3432	1
3	79348	3436	1
3	79399	3440	1
3	79500	3444	1
3	79603	3448	1
3	79706	3452	1
3	79809	3456	1
3	79860	3460	1
3	79964	3464	1
3	80065	3468	1
3	80166	3472	1
3	80268	3476	1
3	80319	3480	1
3	80421	3484	1
3	80524	3488	1
3	80628	3492	1
3	80729	3496	1
3	80780	3500	1
3	80882	3504	1
3	80984	3508	1
3	81088	3512	1
3	81190	3516	1
3	81241	3520	1
3	81343	3524	1
3	81447	3528	1
3	81549	3532	1
3	81653	3536	1
3	81704	3540	1
3	81806	3544	1
3	81909	3548	1
3	82011	3552	1
3	82114	3556	1
3	82165	3560	1
3	82268	3564	1
3	82370	3568	1
3	82473	3572	1
3	82576	3576	1
3	82627	3580	1
3	82728	3584	1
3	82832	3588	1
3	82934	3592	1
3	83038	3596	1
3	83089	3600	1
4	5	4	1
4	147	8	1
4	255	12	1
4	358	16	1
4	409	20	1
4	522	24	1
4	631	28	1
4	740	32	1
4	855	36	1
4	906	40	1
4	1018	44	1
4	1122	48	1
4	1228	52	1
4	1335	56	1
4	1386	60	1
4	1495	64	1
4	1602	68	1
4	1707	72	1
4	1817	76	1
4	1868	80	1
4	1973	84	1
4	2079	88	1
4	2183	92	1
4	2289	96	1
4	2340	100	1
4	2443	104	1
4	2550	108	1
4	2654	112	1
4	2759	116	1
4	2810	120	1
4	2913	124	1
4	3014	128	1
4	3121	132	1
4	3224	136	1
4	3275	140	1
4	3378	144	1
4	3483	148	1
4	3591	152	1
4	3696	156	1
4	3747	160	1
4	3848	164	1
4	3955	168	1
4	4056	172	1
4	4159	176	1
4	4210	180	1
4	4312	184	1
4	4415	188	1
4	4517	192	1
4	4623	196	1
4	4674	200	1
4	4775	204	1
4	4879	208	1
4	4981	212	1
4	5086	216	1
4	5137	220	1
4	5239	224	1
4	5341	228	1
4	5447	232	1
4	5549	236	1
4	5600	240	1
4	5704	244	1
4	5809	248	1
4	5913	252	1
4	6014	256	1
4	6065	260	1
4	6166	264	1
4	6274	268	1
4	6378	272	1
4	6482	276	1
4	6533	280	1
4	6633	284	1
4	6735	288	1
4	6842	292	1
4	6948	296	1
4	6999	300	1
4	7101	304	1
4	7203	308	1
4	7308	312	1
4	7411	316	1
4	7462	320	1
4	7565	324	1
4	7669	328	1
4	7773	332	1
4	7875	336	1
4	7926	340	1
4	8029	344	1
4	8133	348	1
4	8236	352	1
4	8337	356	1
4	8388	360	1
4	8490	364	1
4	8596	368	1
4	8702	372	1
4	8804	376	1
4	8855	380	1
4	8959	384	1
4	9061	388	1
4	9165	392	1
4	9268	396	1
4	9319	400	1
4	9421	404	1
4	9522	408	1
4	9623	412	1
4	9727	416	1
4	9778	420	1
4	9879	424	1
4	9982	428	1
4	10087	432	1
4	10190	436	1
4	10241	440	1
4	10341	444	1
4	10443	448	1
4	10549	452	1
4	10651	456	1
4	10702	460	1
4	10805	464	1
4	10906	468	1
4	11008	472	1
4	11111	476	1
4	11162	480	1
4	11266	484	1
4	11371	488	1
4	11473	492	1
4	11578	496	1
4	11629	500	1
4	11730	504	1
4	11833	508	1
4	11937	512	1
4	12042	516	1
4	12093	520	1
4	12195	524	1
4	12300	528	1
4	12402	532	1
4	12505	536	1
4	12556	540	1
4	12661	544	1
4	12764	548	1
4	12867	552	1
4	12969	556	1
4	13020	560	1
4	13123	564	1
4	13226	568	1
4	13328	572	1
4	13432	576	1
4	13483	580	1
4	13584	584	1
4	13689	588	1
4	13792	592	1
4	13894	596	1
4	13945	600	1
4	14050	604	1
4	14151	608	1
4	14252	612	1
4	14357	616	1
4	14408	620	1
4	14508	624	1
4	14610	628	1
4	14716	632	1
4	14819	636	1
4	14870	640	1
4	14970	644	1
4	15078	648	1
4	15179	652	1
4	15281	656	1
4	15332	660	1
4	15436	664	1
4	15539	668	1
4	15640	672	1
4	15742	676	1
4	15793	680	1
4	15897	684	1
4	16000	688	1
4	16102	692	1
4	16206	696	1
4	16257	700	1
4	16359	704	1
4	16462	708	1
4	16564	712	1
4	16667	716	1
4	16718	720	1
4	16821	724	1
4	16924	728	1
4	17026	732	1
4	17131	736	1
4	17182	740	1
4	17283	744	1
4	17386	748	1
4	17488	752	1
4	17592	756	1
4	17643	760	1
4	17743	764	1
4	17845	768	1
4	17949	772	1
4	18054	776	1
4	18105	780	1
4	18207	784	1
4	18311	788	1
4	18413	792	1
4	18517	796	1
4	18568	800	1
4	18669	804	1
4	18773	808	1
4	18875	812	1
4	18979	816	1
4	19030	820	1
4	19132	824	1
4	19234	828	1
4	19340	832	1
4	19443	836	1
4	19494	840	1
4	19595	844	1
4	19699	848	1
4	19801	852	1
4	19906	856	1
4	19957	860	1
4	20059	864	1
4	20162	868	1
4	20264	872	1
4	20368	876	1
4	20419	880	1
4	20522	884	1
4	20626	888	1
4	20727	892	1
4	20829	896	1
4	20880	900	1
4	20982	904	1
4	21085	908	1
4	21188	912	1
4	21291	916	1
4	21342	920	1
4	21444	924	1
4	21547	928	1
4	21651	932	1
4	21753	936	1
4	21804	940	1
4	21906	944	1
4	22008	948	1
4	22110	952	1
4	22214	956	1
4	22265	960	1
4	22366	964	1
4	22469	968	1
4	22575	972	1
4	22679	976	1
4	22730	980	1
4	22830	984	1
4	22932	988	1
4	23035	992	1
4	23139	996	1
4	23190	1000	1
4	23291	1004	1
4	23396	1008	1
4	23497	1012	1
4	23598	1016	1
4	23649	1020	1
4	23750	1024	1
4	23854	1028	1
4	23958	1032	1
4	24060	1036	1
4	24111	1040	1
4	24214	1044	1
4	24315	1048	1
4	24417	1052	1
4	24520	1056	1
4	24571	1060	1
4	24674	1064	1
4	24776	1068	1
4	24879	1072	1
4	24983	1076	1
4	25034	1080	1
4	25135	1084	1
4	25238	1088	1
4	25342	1092	1
4	25445	1096	1
4	25496	1100	1
4	25596	1104	1
4	25699	1108	1
4	25803	1112	1
4	25905	1116	1
4	25956	1120	1
4	26059	1124	1
4	26160	1128	1
4	26263	1132	1
4	26365	1136	1
4	26416	1140	1
4	26520	1144	1
4	26622	1148	1
4	26726	1152	1
4	26827	1156	1
4	26878	1160	1
4	26978	1164	1
4	27081	1168	1
4	27183	1172	1
4	27286	1176	1
4	27337	1180	1
4	27440	1184	1
4	27541	1188	1
4	27644	1192	1
4	27745	1196	1
4	27796	1200	1
4	27897	1204	1
4	28001	1208	1
4	28104	1212	1
4	28205	1216	1
4	28256	1220	1
4	28356	1224	1
4	28458	1228	1
4	28561	1232	1
4	28665	1236	1
4	28716	1240	1
4	28818	1244	1
4	28919	1248	1
4	29021	1252	1
4	29125	1256	1
4	29176	1260	1
4	29277	1264	1
4	29381	1268	1
4	29482	1272	1
4	29585	1276	1
4	29636	1280	1
4	29736	1284	1
4	29838	1288	1
4	29942	1292	1
4	30043	1296	1
4	30094	1300	1
4	30195	1304	1
4	30302	1308	1
4	30404	1312	1
4	30507	1316	1
4	30558	1320	1
4	30659	1324	1
4	30762	1328	1
4	30865	1332	1
4	30968	1336	1
4	31019	1340	1
4	31119	1344	1
4	31221	1348	1
4	31324	1352	1
4	31428	1356	1
4	31479	1360	1
4	31579	1364	1
4	31682	1368	1
4	31784	1372	1
4	31889	1376	1
4	31940	1380	1
4	32041	1384	1
4	32144	1388	1
4	32248	1392	1
4	32350	1396	1
4	32401	1400	1
4	32504	1404	1
4	32605	1408	1
4	32707	1412	1
4	32812	1416	1
4	32863	1420	1
4	32965	1424	1
4	33066	1428	1
4	33167	1432	1
4	33268	1436	1
4	33319	1440	1
4	33420	1444	1
4	33523	1448	1
4	33628	1452	1
4	33729	1456	1
4	33780	1460	1
4	33880	1464	1
4	33981	1468	1
4	34085	1472	1
4	34187	1476	1
4	34238	1480	1
4	34340	1484	1
4	34444	1488	1
4	34545	1492	1
4	34647	1496	1
4	34698	1500	1
4	34800	1504	1
4	34905	1508	1
4	35007	1512	1
4	35111	1516	1
4	35162	1520	1
4	35265	1524	1
4	35366	1528	1
4	35468	1532	1
4	35572	1536	1
4	35623	1540	1
4	35723	1544	1
4	35824	1548	1
4	35926	1552	1
4	36029	1556	1
4	36080	1560	1
4	36183	1564	1
4	36286	1568	1
4	36387	1572	1
4	36488	1576	1
4	36539	1580	1
4	36640	1584	1
4	36747	1588	1
4	36848	1592	1
4	36950	1596	1
4	37001	1600	1
4	37103	1604	1
4	37207	1608	1
4	37308	1612	1
4	37409	1616	1
4	37460	1620	1
4	37561	1624	1
4	37665	1628	1
4	37767	1632	1
4	37872	1636	1
4	37923	1640	1
4	38024	1644	1
4	38128	1648	1
4	38229	1652	1
4	38332	1656	1
4	38383	1660	1
4	38485	1664	1
4	38587	1668	1
4	38691	1672	1
4	38794	1676	1
4	38845	1680	1
4	38946	1684	1
4	39049	1688	1
4	39153	1692	1
4	39256	1696	1
4	39307	1700	1
4	39409	1704	1
4	39512	1708	1
4	39613	1712	1
4	39715	1716	1
4	39766	1720	1
4	39869	1724	1
4	39971	1728	1
4	40076	1732	1
4	40178	1736	1
4	40229	1740	1
4	40331	1744	1
4	40435	1748	1
4	40537	1752	1
4	40641	1756	1
4	40692	1760	1
4	40792	1764	1
4	40895	1768	1
4	40997	1772	1
4	41102	1776	1
4	41153	1780	1
4	41254	1784	1
4	41357	1788	1
4	41462	1792	1
4	41563	1796	1
4	41614	1800	1
4	41716	1804	1
4	41817	1808	1
4	41918	1812	1
4	42020	1816	1
4	42071	1820	1
4	42175	1824	1
4	42277	1828	1
4	42381	1832	1
4	42482	1836	1
4	42533	1840	1
4	42633	1844	1
4	42735	1848	1
4	42839	1852	1
4	42943	1856	1
4	42994	1860	1
4	43094	1864	1
4	43196	1868	1
4	43299	1872	1
4	43401	1876	1
4	43452	1880	1
4	43554	1884	1
4	43656	1888	1
4	43760	1892	1
4	43862	1896	1
4	43913	1900	1
4	44016	1904	1
4	44117	1908	1
4	44218	1912	1
4	44321	1916	1
4	44372	1920	1
4	44473	1924	1
4	44577	1928	1
4	44679	1932	1
4	44783	1936	1
4	44834	1940	1
4	44935	1944	1
4	45038	1948	1
4	45143	1952	1
4	45244	1956	1
4	45295	1960	1
4	45396	1964	1
4	45501	1968	1
4	45604	1972	1
4	45706	1976	1
4	45757	1980	1
4	45861	1984	1
[...]
100	47498	2052	1
100	47600	2056	1
100	47651	2060	1
100	47752	2064	1
100	47855	2068	1
100	47957	2072	1
100	48060	2076	1
100	48111	2080	1
100	48214	2084	1
100	48317	2088	1
100	48419	2092	1
100	48523	2096	1
100	48574	2100	1
100	48676	2104	1
100	48778	2108	1
100	48883	2112	1
100	48985	2116	1
100	49036	2120	1
100	49137	2124	1
100	49240	2128	1
100	49342	2132	1
100	49444	2136	1
100	49495	2140	1
100	49597	2144	1
100	49698	2148	1
100	49800	2152	1
100	49903	2156	1
100	49954	2160	1
100	50056	2164	1
100	50160	2168	1
100	50261	2172	1
100	50362	2176	1
100	50413	2180	1
100	50517	2184	1
100	50620	2188	1
100	50722	2192	1
100	50825	2196	1
100	50876	2200	1
100	50979	2204	1
100	51082	2208	1
100	51183	2212	1
100	51288	2216	1
100	51339	2220	1
100	51439	2224	1
100	51541	2228	1
100	51645	2232	1
100	51748	2236	1
100	51799	2240	1
100	51899	2244	1
100	52001	2248	1
100	52104	2252	1
100	52209	2256	1
100	52260	2260	1
100	52360	2264	1
100	52462	2268	1
100	52568	2272	1
100	52672	2276	1
100	52723	2280	1
100	52824	2284	1
100	52927	2288	1
100	53031	2292	1
100	53135	2296	1
100	53186	2300	1
100	53286	2304	1
100	53388	2308	1
100	53494	2312	1
100	53596	2316	1
100	53647	2320	1
100	53748	2324	1
100	53851	2328	1
100	53952	2332	1
100	54056	2336	1
100	54107	2340	1
100	54207	2344	1
100	54309	2348	1
100	54413	2352	1
100	54516	2356	1
100	54567	2360	1
100	54667	2364	1
100	54770	2368	1
100	54873	2372	1
100	54974	2376	1
100	55025	2380	1
100	55126	2384	1
100	55230	2388	1
100	55332	2392	1
100	55435	2396	1
100	55486	2400	1
100	55588	2404	1
100	55691	2408	1
100	55794	2412	1
100	55899	2416	1
100	55950	2420	1
100	56051	2424	1
100	56156	2428	1
100	56258	2432	1
100	56362	2436	1
100	56413	2440	1
100	56516	2444	1
100	56618	2448	1
100	56722	2452	1
100	56826	2456	1
100	56877	2460	1
100	56978	2464	1
100	57082	2468	1
100	57185	2472	1
100	57287	2476	1
100	57338	2480	1
100	57440	2484	1
100	57545	2488	1
100	57646	2492	1
100	57748	2496	1
100	57799	2500	1
100	57901	2504	1
100	58006	2508	1
100	58108	2512	1
100	58213	2516	1
100	58264	2520	1
100	58365	2524	1
100	58469	2528	1
100	58571	2532	1
100	58677	2536	1
100	58728	2540	1
100	58831	2544	1
100	58933	2548	1
100	59037	2552	1
100	59139	2556	1
100	59190	2560	1
100	59292	2564	1
100	59399	2568	1
100	59500	2572	1
100	59601	2576	1
100	59652	2580	1
100	59753	2584	1
100	59856	2588	1
100	59963	2592	1
100	60066	2596	1
100	60117	2600	1
100	60218	2604	1
100	60321	2608	1
100	60423	2612	1
100	60526	2616	1
100	60577	2620	1
100	60678	2624	1
100	60782	2628	1
100	60883	2632	1
100	60984	2636	1
100	61035	2640	1
100	61136	2644	1
100	61239	2648	1
100	61344	2652	1
100	61446	2656	1
100	61497	2660	1
100	61598	2664	1
100	61701	2668	1
100	61802	2672	1
100	61905	2676	1
100	61956	2680	1
100	62058	2684	1
100	62161	2688	1
100	62263	2692	1
100	62367	2696	1
100	62418	2700	1
100	62519	2704	1
100	62623	2708	1
100	62724	2712	1
100	62826	2716	1
100	62877	2720	1
100	62980	2724	1
100	63081	2728	1
100	63185	2732	1
100	63286	2736	1
100	63337	2740	1
100	63437	2744	1
100	63540	2748	1
100	63643	2752	1
100	63745	2756	1
100	63796	2760	1
100	63900	2764	1
100	64002	2768	1
100	64106	2772	1
100	64209	2776	1
100	64260	2780	1
100	64361	2784	1
100	64464	2788	1
100	64568	2792	1
100	64670	2796	1
100	64721	2800	1
100	64824	2804	1
100	64926	2808	1
100	65031	2812	1
100	65133	2816	1
100	65184	2820	1
100	65287	2824	1
100	65388	2828	1
100	65489	2832	1
100	65591	2836	1
100	65642	2840	1
100	65745	2844	1
100	65848	2848	1
100	65949	2852	1
100	66052	2856	1
100	66103	2860	1
100	66205	2864	1
100	66306	2868	1
100	66407	2872	1
100	66509	2876	1
100	66560	2880	1
100	66662	2884	1
100	66766	2888	1
100	66868	2892	1
100	66971	2896	1
100	67022	2900	1
100	67126	2904	1
100	67229	2908	1
100	67330	2912	1
100	67433	2916	1
100	67484	2920	1
100	67584	2924	1
100	67689	2928	1
100	67790	2932	1
100	67891	2936	1
100	67942	2940	1
100	68043	2944	1
100	68148	2948	1
100	68250	2952	1
100	68353	2956	1
100	68404	2960	1
100	68506	2964	1
100	68611	2968	1
100	68713	2972	1
100	68816	2976	1
100	68867	2980	1
100	68970	2984	1
100	69072	2988	1
100	69176	2992	1
100	69278	2996	1
100	69329	3000	1
100	69430	3004	1
100	69532	3008	1
100	69636	3012	1
100	69740	3016	1
100	69791	3020	1
100	69891	3024	1
100	69992	3028	1
100	70095	3032	1
100	70196	3036	1
100	70247	3040	1
100	70347	3044	1
100	70450	3048	1
100	70551	3052	1
100	70654	3056	1
100	70705	3060	1
100	70806	3064	1
100	70909	3068	1
100	71012	3072	1
100	71116	3076	1
100	71167	3080	1
100	71268	3084	1
100	71372	3088	1
100	71475	3092	1
100	71576	3096	1
100	71627	3100	1
100	71727	3104	1
100	71829	3108	1
100	71933	3112	1
100	72034	3116	1
100	72085	3120	1
100	72185	3124	1
100	72286	3128	1
100	72387	3132	1
100	72489	3136	1
100	72540	3140	1
100	72643	3144	1
100	72745	3148	1
100	72848	3152	1
100	72952	3156	1
100	73003	3160	1
100	73103	3164	1
100	73205	3168	1
100	73308	3172	1
100	73411	3176	1
100	73462	3180	1
100	73565	3184	1
100	73667	3188	1
100	73770	3192	1
100	73873	3196	1
100	73924	3200	1
100	74027	3204	1
100	74129	3208	1
100	74233	3212	1
100	74334	3216	1
100	74385	3220	1
100	74485	3224	1
100	74586	3228	1
100	74687	3232	1
100	74789	3236	1
100	74840	3240	1
100	74944	3244	1
100	75046	3248	1
100	75149	3252	1
100	75253	3256	1
100	75304	3260	1
100	75406	3264	1
100	75507	3268	1
100	75611	3272	1
100	75712	3276	1
100	75763	3280	1
100	75863	3284	1
100	75965	3288	1
100	76070	3292	1
100	76171	3296	1
100	76222	3300	1
100	76323	3304	1
100	76428	3308	1
100	76530	3312	1
100	76634	3316	1
100	76685	3320	1
100	76786	3324	1
100	76889	3328	1
100	76995	3332	1
100	77096	3336	1
100	77147	3340	1
100	77247	3344	1
100	77350	3348	1
100	77453	3352	1
100	77554	3356	1
100	77605	3360	1
100	77705	3364	1
100	77807	3368	1
100	77909	3372	1
100	78010	3376	1
100	78061	3380	1
100	78162	3384	1
100	78264	3388	1
100	78366	3392	1
100	78469	3396	1
100	78520	3400	1
100	78622	3404	1
100	78725	3408	1
100	78829	3412	1
100	78930	3416	1
100	78981	3420	1
100	79082	3424	1
100	79186	3428	1
100	79288	3432	1
100	79394	3436	1
100	79445	3440	1
100	79546	3444	1
100	79649	3448	1
100	79752	3452	1
100	79855	3456	1
100	79906	3460	1
100	80010	3464	1
100	80111	3468	1
100	80212	3472	1
100	80314	3476	1
100	80365	3480	1
100	80467	3484	1
100	80570	3488	1
100	80674	3492	1
100	80775	3496	1
100	80826	3500	1
100	80928	3504	1
100	81030	3508	1
100	81134	3512	1
100	81236	3516	1
100	81287	3520	1
100	81389	3524	1
100	81493	3528	1
100	81595	3532	1
100	81699	3536	1
100	81750	3540	1
100	81852	3544	1
100	81955	3548	1
100	82057	3552	1
100	82160	3556	1
100	82211	3560	1
100	82314	3564	1
100	82416	3568	1
100	82519	3572	1
100	82622	3576	1
100	82673	3580	1
100	82774	3584	1
100	82878	3588	1
100	82980	3592	1
100	83084	3596	1
100	83135	3600	1
101	3896	165	1
101	57904	2505	1
101	59295	2565	1
101	61139	2645	1
101	61242	2650	1
101	62266	2695	1
101	64929	2810	1
101	66562	2880	1
101	66665	2885	1
101	68509	2965	1
101	69331	3000	1
101	69535	3010	1
101	72748	3150	1
101	72851	3155	1
101	73670	3190	1
101	73773	3195	1
101	73926	3200	1
101	74132	3210	1
101	76326	3305	1
101	76789	3325	1
101	76892	3330	1
101	77810	3370	1
101	78165	3385	1
101	78369	3395	1
101	78522	3400	1
101	78625	3405	1
101	78728	3410	1
101	79549	3445	1
101	79908	3460	1
102	3896	165	161
102	57904	2505	2497
102	59295	2565	2553
102	61139	2645	2629
102	61242	2650	2630
102	62266	2695	2527
102	64929	2810	302
102	66562	2880	312
102	66665	2885	237
102	68509	2965	313
102	69331	3000	304
102	69535	3010	198
102	72748	3150	266
102	72851	3155	267
102	73670	3190	222
102	73773	3195	191
102	73926	3200	188
102	74132	3210	58
102	76326	3305	149
102	76789	3325	133
102	76892	3330	134
102	77810	3370	166
102	78165	3385	173
102	78369	3395	87
102	78522	3400	72
102	78625	3405	73
102	78728	3410	38
102	79549	3445	57
102	79908	3460	64
103	3896	165	1
103	57904	2505	1
103	59295	2565	1
103	61139	2645	1
103	61242	2650	1
103	62266	2695	1
103	64929	2810	1
103	66562	2880	1
103	66665	2885	1
103	68509	2965	1
103	69331	3000	1
103	69535	3010	1
103	72748	3150	1
103	72851	3155	1
103	73670	3190	1
103	73773	3195	1
103	73926	3200	1
103	74132	3210	1
103	76326	3305	1
103	76789	3325	1
103	76892	3330	1
103	77810	3370	1
103	78165	3385	1
103	78369	3395	1
103	78522	3400	1
103	78625	3405	1
103	78728	3410	1
103	79549	3445	1
103	79908	3460	1
104	4565	195	1
104	5029	215	1
104	19282	830	1
104	41302	1785	1
104	41405	1790	1
104	42118	1820	1
104	44983	1945	1
104	45086	1950	1
104	46574	2015	1
104	46727	2020	1
104	46830	2025	1
104	48422	2095	1
104	49956	2160	1
104	56261	2435	1
104	58111	2515	1
105	4565	195	191
105	5029	215	207
105	19282	830	818
105	41302	1785	1769
105	41405	1790	1770
105	42118	1820	1624
105	44983	1945	1729
105	45086	1950	1118
105	46574	2015	227
105	46727	2020	228
105	46830	2025	201
105	48422	2095	147
105	49956	2160	208
105	56261	2435	419
105	58111	2515	491
106	4565	195	1
106	5029	215	1
106	19282	830	1
106	41302	1785	1
106	41405	1790	1
106	42118	1820	1
106	44983	1945	1
106	45086	1950	1
106	46574	2015	1
106	46727	2020	1
106	46830	2025	1
106	48422	2095	1
106	49956	2160	1
106	56261	2435	1
106	58111	2515	1
107	4823	205	1
107	81289	3520	1
107	81392	3525	1
107	82060	3555	1
107	82213	3560	1
108	4823	205	201
108	81289	3520	3512
108	81392	3525	3513
108	82060	3555	3539
108	82213	3560	3540
109	4823	205	1
109	81289	3520	1
109	81392	3525	1
109	82060	3555	1
109	82213	3560	1
110	5389	230	1
111	5389	230	226
112	5389	230	1
113	5647	240	1
114	5647	240	236
115	5647	240	1
116	6214	265	1
117	6214	265	261
118	6214	265	1
119	6783	290	1
119	10749	460	1
119	11056	475	1
119	30243	1305	1
119	32089	1385	1
119	37048	1600	1
119	37151	1605	1
119	37609	1625	1
119	40585	1755	1
119	41045	1775	1
119	64005	2770	1
119	64723	2800	1
119	66871	2895	1
119	67024	2900	1
119	79085	3425	1
119	79291	3435	1
119	79755	3455	1
119	80573	3490	1
120	6783	290	286
120	10749	460	452
120	11056	475	463
120	30243	1305	1289
120	32089	1385	1365
120	37048	1600	1308
120	37151	1605	1141
120	37609	1625	1149
120	40585	1755	447
120	41045	1775	387
120	64005	2770	1166
120	64723	2800	1192
120	66871	2895	1267
120	67024	2900	1144
120	79085	3425	1649
120	79291	3435	663
120	79755	3455	651
120	80573	3490	594
121	6783	290	1
121	10749	460	1
121	11056	475	1
121	30243	1305	1
121	32089	1385	1
121	37048	1600	1
121	37151	1605	1
121	37609	1625	1
121	40585	1755	1
121	41045	1775	1
121	64005	2770	1
121	64723	2800	1
121	66871	2895	1
121	67024	2900	1
121	79085	3425	1
121	79291	3435	1
121	79755	3455	1
121	80573	3490	1
122	7251	310	1
122	12603	540	1
122	13067	560	1
123	7251	310	306
123	12603	540	532
123	13067	560	548
124	7251	310	1
124	12603	540	1
124	13067	560	1
125	7973	340	1
125	13992	600	1
125	17074	735	1
125	19643	845	1
125	19849	855	1
125	20312	875	1
125	20927	900	1
125	21030	905	1
125	21133	910	1
125	21236	915	1
125	21389	920	1
125	21492	925	1
125	21595	930	1
125	24824	1070	1
125	24927	1075	1
125	26003	1120	1
125	26670	1150	1
125	28506	1230	1
125	28609	1235	1
125	34285	1480	1
125	34388	1485	1
126	7973	340	336
126	13992	600	592
126	17074	735	723
126	19643	845	829
126	19849	855	835
126	20312	875	531
126	20927	900	296
126	21030	905	169
126	21133	910	62
126	21236	915	59
126	21389	920	44
126	21492	925	21
126	21595	930	22
126	24824	1070	158
126	24927	1075	159
126	26003	1120	196
126	26670	1150	222
126	28506	1230	298
126	28609	1235	163
126	34285	1480	404
126	34388	1485	361
127	7973	340	1
127	13992	600	1
127	17074	735	1
127	19643	845	1
127	19849	855	1
127	20312	875	1
127	20927	900	1
127	21030	905	1
127	21133	910	1
127	21236	915	1
127	21389	920	1
127	21492	925	1
127	21595	930	1
127	24824	1070	1
127	24927	1075	1
127	26003	1120	1
127	26670	1150	1
127	28506	1230	1
127	28609	1235	1
127	34285	1480	1
127	34388	1485	1
128	8902	380	1
128	10491	450	1
128	12450	535	1
128	32755	1415	1
128	34848	1505	1
128	35055	1515	1
128	35516	1535	1
129	8902	380	376
129	10491	450	442
129	12450	535	523
129	32755	1415	1399
129	34848	1505	1485
129	35055	1515	1131
129	35516	1535	1083
130	8902	380	1
130	10491	450	1
130	12450	535	1
130	32755	1415	1
130	34848	1505	1
130	35055	1515	1
130	35516	1535	1
131	9109	390	1
131	9927	425	1
131	10030	430	1
131	11778	505	1
131	11881	510	1
131	14658	630	1
131	59192	2560	1
131	59756	2585	1
131	59859	2590	1
131	60681	2625	1
132	9109	390	386
132	9927	425	417
132	10030	430	418
132	11778	505	489
132	11881	510	490
132	14658	630	238
132	59192	2560	2132
132	59756	2585	2153
132	59859	2590	2082
132	60681	2625	2113
133	9109	390	1
133	9927	425	1
133	10030	430	1
133	11778	505	1
133	11881	510	1
133	14658	630	1
133	59192	2560	1
133	59756	2585	1
133	59859	2590	1
133	60681	2625	1
134	11209	480	1
134	22414	965	1
134	22517	970	1
134	24158	1040	1
134	24465	1055	1
134	24618	1060	1
134	43960	1900	1
134	52827	2285	1
134	62522	2705	1
134	63798	2760	1
134	64364	2785	1
134	64467	2790	1
134	65186	2820	1
134	65644	2840	1
135	11209	480	476
135	22414	965	957
135	22517	970	958
135	24158	1040	1024
135	24465	1055	1035
135	24618	1060	576
135	43960	1900	932
135	52827	2285	1313
135	62522	2705	1661
135	63798	2760	1704
135	64364	2785	1721
135	64467	2790	886
135	65186	2820	532
135	65644	2840	132
136	11209	480	1
136	22414	965	1
136	22517	970	1
136	24158	1040	1
136	24465	1055	1
136	24618	1060	1
136	43960	1900	1
136	52827	2285	1
136	62522	2705	1
136	63798	2760	1
136	64364	2785	1
136	64467	2790	1
136	65186	2820	1
136	65644	2840	1
137	11521	495	1
138	11521	495	491
139	11521	495	1
140	13376	575	1
140	25183	1085	1
140	25286	1090	1
140	26463	1140	1
140	27231	1175	1
140	27384	1180	1
140	29069	1255	1
140	29325	1265	1
140	29886	1290	1
140	31269	1350	1
140	31372	1355	1
140	31832	1375	1
140	56981	2465	1
140	57801	2500	1
140	58368	2525	1
140	58936	2550	1
140	61499	2660	1
141	13376	575	571
141	25183	1085	1077
141	25286	1090	1078
141	26463	1140	1124
141	27231	1175	1155
141	27384	1180	604
141	29069	1255	167
141	29325	1265	173
141	29886	1290	146
141	31269	1350	174
141	31372	1355	171
141	31832	1375	119
141	56981	2465	1197
141	57801	2500	1208
141	58368	2525	1173
141	58936	2550	1194
141	61499	2660	1284
142	13376	575	1
142	25183	1085	1
142	25286	1090	1
142	26463	1140	1
142	27231	1175	1
142	27384	1180	1
142	29069	1255	1
142	29325	1265	1
142	29886	1290	1
142	31269	1350	1
142	31372	1355	1
142	31832	1375	1
142	56981	2465	1
142	57801	2500	1
142	58368	2525	1
142	58936	2550	1
142	61499	2660	1
143	13632	585	1
143	18717	805	1
144	13632	585	581
144	18717	805	797
145	13632	585	1
145	18717	805	1
146	15379	660	1
146	16150	695	1
146	17331	745	1
146	17434	750	1
146	18461	795	1
146	18923	815	1
147	15379	660	656
147	16150	695	687
147	17331	745	733
147	17434	750	734
147	18461	795	775
147	18923	815	151
148	15379	660	1
148	16150	695	1
148	17331	745	1
148	17434	750	1
148	18461	795	1
148	18923	815	1
149	15840	680	1
149	16612	715	1
149	16765	720	1
149	17893	770	1
149	27945	1205	1
149	30452	1315	1
149	30605	1320	1
149	32192	1390	1
149	32448	1400	1
149	33468	1445	1
149	33571	1450	1
149	74842	3240	1
150	15840	680	676
150	16612	715	707
150	16765	720	708
150	17893	770	754
150	27945	1205	1185
150	30452	1315	631
150	30605	1320	604
150	32192	1390	666
150	32448	1400	628
150	33468	1445	237
150	33571	1450	134
150	74842	3240	1916
151	15840	680	1
151	16612	715	1
151	16765	720	1
151	17893	770	1
151	27945	1205	1
151	30452	1315	1
151	30605	1320	1
151	32192	1390	1
151	32448	1400	1
151	33468	1445	1
151	33571	1450	1
151	74842	3240	1
152	21851	940	1
152	21954	945	1
152	22158	955	1
152	22980	990	1
152	23083	995	1
152	23798	1025	1
152	34745	1500	1
152	35974	1555	1
152	36127	1560	1
152	36688	1585	1
152	38072	1645	1
152	38635	1670	1
153	21851	940	936
153	21954	945	937
153	22158	955	943
153	22980	990	974
153	23083	995	975
153	23798	1025	81
153	34745	1500	552
153	35974	1555	599
153	36127	1560	568
153	36688	1585	589
153	38072	1645	617
153	38635	1670	166
154	21851	940	1
154	21954	945	1
154	22158	955	1
154	22980	990	1
154	23083	995	1
154	23798	1025	1
154	34745	1500	1
154	35974	1555	1
154	36127	1560	1
154	36688	1585	1
154	38072	1645	1
154	38635	1670	1
155	23339	1005	1
155	62879	2720	1
155	80367	3480	1
155	80470	3485	1
155	81033	3510	1
155	82983	3595	1
156	23339	1005	1001
156	62879	2720	2712
156	80367	3480	3468
156	80470	3485	3469
156	81033	3510	3490
156	82983	3595	2587
157	23339	1005	1
157	62879	2720	1
157	80367	3480	1
157	80470	3485	1
157	81033	3510	1
157	82983	3595	1
158	37815	1635	1
159	37815	1635	1631
160	37815	1635	1
161	38994	1685	1
161	39097	1690	1
162	38994	1685	1681
162	39097	1690	1682
163	38994	1685	1
163	39097	1690	1
164	39813	1720	1
164	40276	1740	1
164	40379	1745	1
164	60221	2605	1
164	60324	2610	1
165	39813	1720	1716
165	40276	1740	1732
165	40379	1745	1733
165	60221	2605	2589
165	60324	2610	2590
166	39813	1720	1
166	40276	1740	1
166	40379	1745	1
166	60221	2605	1
166	60324	2610	1
167	40019	1730	1
167	42325	1830	1
167	42783	1850	1
167	52107	2255	1
167	53649	2320	1
168	40019	1730	1726
168	42325	1830	1822
168	42783	1850	1838
168	52107	2255	2239
168	53649	2320	2300
169	40019	1730	1
169	42325	1830	1
169	42783	1850	1
169	52107	2255	1
169	53649	2320	1
170	43244	1870	1
170	43347	1875	1
170	43704	1890	1
170	47960	2075	1
170	48113	2080	1
170	50725	2195	1
170	50878	2200	1
170	56054	2425	1
170	68253	2955	1
170	68406	2960	1
170	69075	2990	1
171	43244	1870	1866
171	43347	1875	1867
171	43704	1890	1878
171	47960	2075	2059
171	48113	2080	2060
171	50725	2195	323
171	50878	2200	324
171	56054	2425	533
171	68253	2955	879
171	68406	2960	876
171	69075	2990	794
172	43244	1870	1
172	43347	1875	1
172	43704	1890	1
172	47960	2075	1
172	48113	2080	1
172	50725	2195	1
172	50878	2200	1
172	56054	2425	1
172	68253	2955	1
172	68406	2960	1
172	69075	2990	1
173	44521	1925	1
173	57340	2480	1
173	57443	2485	1
173	58574	2535	1
174	44521	1925	1921
174	57340	2480	2472
174	57443	2485	2473
174	58574	2535	2519
175	44521	1925	1
175	57340	2480	1
175	57443	2485	1
175	58574	2535	1
176	44727	1935	1
176	45444	1965	1
176	47395	2050	1
176	48781	2110	1
176	49345	2135	1
176	52930	2290	1
177	44727	1935	1931
177	45444	1965	1957
177	47395	2050	2038
177	48781	2110	2094
177	49345	2135	2115
177	52930	2290	354
178	44727	1935	1
178	45444	1965	1
178	47395	2050	1
178	48781	2110	1
178	49345	2135	1
178	52930	2290	1
179	45804	1980	1
179	47653	2060	1
180	45804	1980	1976
180	47653	2060	2052
181	45804	1980	1
181	47653	2060	1
182	46263	2000	1
182	47189	2040	1
182	49038	2120	1
182	49803	2155	1
182	50059	2165	1
182	51544	2230	1
182	52004	2250	1
182	53391	2310	1
183	46263	2000	1996
183	47189	2040	2032
183	49038	2120	2108
183	49803	2155	2139
183	50059	2165	2145
183	51544	2230	226
183	52004	2250	206
183	53391	2310	186
184	46263	2000	1
184	47189	2040	1
184	49038	2120	1
184	49803	2155	1
184	50059	2165	1
184	51544	2230	1
184	52004	2250	1
184	53391	2310	1
185	52465	2270	1
185	54312	2350	1
185	55129	2385	1
185	55797	2415	1
185	56621	2450	1
186	52465	2270	2266
186	54312	2350	2342
186	55129	2385	2373
186	55797	2415	2399
186	56621	2450	2430
187	52465	2270	1
187	54312	2350	1
187	55129	2385	1
187	55797	2415	1
187	56621	2450	1
188	55335	2395	1
188	55488	2400	1
188	55591	2405	1
188	55694	2410	1
188	73208	3170	1
188	73311	3175	1
188	73464	3180	1
188	75049	3250	1
188	75152	3255	1
188	79652	3450	1
188	81598	3535	1
188	82419	3570	1
188	82522	3575	1
188	82675	3580	1
189	55335	2395	2391
189	55488	2400	2392
189	55591	2405	2393
189	55694	2410	2394
189	73208	3170	3150
189	73311	3175	779
189	73464	3180	776
189	75049	3250	842
189	75152	3255	843
189	79652	3450	278
189	81598	3535	359
189	82419	3570	386
189	82522	3575	323
189	82675	3580	324
190	55335	2395	1
190	55488	2400	1
190	55591	2405	1
190	55694	2410	1
190	73208	3170	1
190	73311	3175	1
190	73464	3180	1
190	75049	3250	1
190	75152	3255	1
190	79652	3450	1
190	81598	3535	1
190	82419	3570	1
190	82522	3575	1
190	82675	3580	1
191	68046	2945	1
191	68716	2975	1
191	68869	2980	1
191	70809	3065	1
191	70912	3070	1
191	71015	3075	1
191	71271	3085	1
191	71832	3110	1
191	72542	3140	1
191	75968	3290	1
191	76533	3315	1
192	68046	2945	2941
192	68716	2975	2967
192	68869	2980	2968
192	70809	3065	3049
192	70912	3070	3050
192	71015	3075	127
192	71271	3085	109
192	71832	3110	126
192	72542	3140	72
192	75968	3290	218
192	76533	3315	239
193	68046	2945	1
193	68716	2975	1
193	68869	2980	1
193	70809	3065	1
193	70912	3070	1
193	71015	3075	1
193	71271	3085	1
193	71832	3110	1
193	72542	3140	1
193	75968	3290	1
193	76533	3315	1

