version 2
run FourthVerification-0-20201214-15:14:40-220608
attr configname FourthVerification
attr datetime 20201214-15:14:40
attr experiment FourthVerification
attr inifile omnetpp.ini
attr iterationvars "$0=2, $1=0.2"
attr iterationvarsf 2,0.2-
attr measurement "$0=2, $1=0.2"
attr network slottedNetwork
attr processid 220608
attr repetition 0
attr replication #0
attr resultdir results
attr runnumber 0
attr seedset 0
param **.numTransmitters 2
param **.numChannels 1
param **.bufferSize 5
param **.sendProbability 0.2
param **.expMean 4s
param **.timeSlotSize 5s
param **.thresh 20s
param **.deterministicInterarrivalTime true
param **.numTransmitters 1
param **.numChannels 1
param **.bufferSize 5
param **.sendProbability 1
param **.expMean 5s
param **.timeSlotSize 5s
param **.thresh 20s
param **.deterministicInterarrivalTime false

vector 0 slottedNetwork.transmitters[0] numPacketCreated:vector ETV
attr source numPacketCreatedSignal
vector 1 slottedNetwork.transmitters[1] numPacketCreated:vector ETV
attr source numPacketCreatedSignal
vector 2 slottedNetwork.ch throughput:vector ETV
attr source throughputSignal
vector 3 slottedNetwork.transmitters[0] numPacketDiscarded:vector ETV
attr source numPacketDiscardedSignal
vector 4 slottedNetwork.transmitters[1] numPacketDiscarded:vector ETV
attr source numPacketDiscardedSignal
vector 5 slottedNetwork.receivers[1] numPacketReceived:vector ETV
attr source numPacketReceivedSignal
vector 6 slottedNetwork.receivers[1] responseTime:vector ETV
attr source responseTimeSignal
vector 7 slottedNetwork.receivers[1] threshold:vector ETV
attr source thresholdSignal
vector 8 slottedNetwork.receivers[0] numPacketReceived:vector ETV
attr source numPacketReceivedSignal
vector 9 slottedNetwork.receivers[0] responseTime:vector ETV
attr source responseTimeSignal
vector 10 slottedNetwork.receivers[0] threshold:vector ETV
attr source thresholdSignal
0	1	4	1
0	6	8	1
0	11	12	1
0	16	16	1
0	19	20	1
0	23	24	1
0	28	28	1
0	33	32	1
0	40	36	1
0	43	40	1
0	47	44	1
0	52	48	1
0	57	52	1
0	62	56	1
0	65	60	1
0	70	64	1
0	77	68	1
0	84	72	1
0	91	76	1
0	94	80	1
0	99	84	1
0	104	88	1
0	109	92	1
0	115	96	1
0	118	100	1
0	123	104	1
0	128	108	1
0	134	112	1
0	141	116	1
0	144	120	1
0	149	124	1
0	154	128	1
0	161	132	1
0	166	136	1
0	169	140	1
0	173	144	1
0	178	148	1
0	183	152	1
0	188	156	1
0	191	160	1
0	195	164	1
0	201	168	1
0	207	172	1
0	212	176	1
0	215	180	1
0	219	184	1
0	224	188	1
0	230	192	1
0	236	196	1
0	239	200	1
0	244	204	1
0	251	208	1
0	258	212	1
0	265	216	1
0	268	220	1
0	273	224	1
0	278	228	1
0	283	232	1
0	288	236	1
0	291	240	1
0	296	244	1
0	302	248	1
0	307	252	1
0	312	256	1
0	315	260	1
0	319	264	1
0	324	268	1
0	330	272	1
0	336	276	1
0	339	280	1
0	343	284	1
0	349	288	1
0	355	292	1
0	360	296	1
0	363	300	1
0	369	304	1
0	374	308	1
0	379	312	1
0	384	316	1
0	387	320	1
0	391	324	1
0	397	328	1
0	403	332	1
0	408	336	1
0	411	340	1
0	417	344	1
0	422	348	1
0	427	352	1
0	432	356	1
0	435	360	1
0	439	364	1
0	444	368	1
0	449	372	1
0	454	376	1
0	457	380	1
0	463	384	1
0	468	388	1
0	473	392	1
0	478	396	1
0	481	400	1
0	485	404	1
0	490	408	1
0	495	412	1
0	500	416	1
0	503	420	1
0	507	424	1
0	512	428	1
0	517	432	1
0	522	436	1
0	525	440	1
0	529	444	1
0	534	448	1
0	540	452	1
0	546	456	1
0	549	460	1
0	554	464	1
0	560	468	1
0	565	472	1
0	570	476	1
0	573	480	1
0	578	484	1
0	584	488	1
0	589	492	1
0	594	496	1
0	597	500	1
0	601	504	1
0	606	508	1
0	611	512	1
0	616	516	1
0	619	520	1
0	623	524	1
0	628	528	1
0	633	532	1
0	638	536	1
0	641	540	1
0	646	544	1
0	653	548	1
0	659	552	1
0	665	556	1
0	668	560	1
0	674	564	1
0	681	568	1
0	687	572	1
0	692	576	1
0	695	580	1
0	701	584	1
0	706	588	1
0	711	592	1
0	716	596	1
0	719	600	1
0	723	604	1
0	728	608	1
0	733	612	1
0	738	616	1
0	741	620	1
0	745	624	1
0	750	628	1
0	756	632	1
0	763	636	1
0	766	640	1
0	772	644	1
0	779	648	1
0	785	652	1
0	791	656	1
0	794	660	1
0	799	664	1
0	804	668	1
0	810	672	1
0	817	676	1
0	820	680	1
0	826	684	1
0	833	688	1
0	839	692	1
0	844	696	1
0	847	700	1
0	852	704	1
0	859	708	1
0	865	712	1
0	870	716	1
0	873	720	1
0	877	724	1
0	883	728	1
0	889	732	1
0	894	736	1
0	897	740	1
0	902	744	1
0	909	748	1
0	915	752	1
0	920	756	1
0	923	760	1
0	927	764	1
0	933	768	1
0	940	772	1
0	946	776	1
0	949	780	1
0	955	784	1
0	960	788	1
0	965	792	1
0	970	796	1
0	973	800	1
0	977	804	1
0	982	808	1
0	987	812	1
0	993	816	1
0	996	820	1
0	1002	824	1
0	1008	828	1
0	1013	832	1
0	1018	836	1
0	1021	840	1
0	1025	844	1
0	1031	848	1
0	1038	852	1
0	1044	856	1
0	1047	860	1
0	1052	864	1
0	1059	868	1
0	1065	872	1
0	1071	876	1
0	1074	880	1
0	1081	884	1
0	1086	888	1
0	1091	892	1
0	1096	896	1
0	1099	900	1
0	1103	904	1
0	1108	908	1
0	1115	912	1
0	1120	916	1
0	1123	920	1
0	1127	924	1
0	1133	928	1
0	1139	932	1
0	1145	936	1
0	1148	940	1
0	1153	944	1
0	1158	948	1
0	1163	952	1
0	1168	956	1
0	1171	960	1
0	1175	964	1
0	1180	968	1
0	1186	972	1
0	1192	976	1
0	1195	980	1
0	1199	984	1
0	1205	988	1
0	1212	992	1
0	1218	996	1
0	1221	1000	1
0	1226	1004	1
0	1232	1008	1
0	1237	1012	1
0	1243	1016	1
0	1246	1020	1
0	1251	1024	1
0	1256	1028	1
0	1261	1032	1
0	1266	1036	1
0	1269	1040	1
0	1274	1044	1
0	1281	1048	1
0	1287	1052	1
0	1292	1056	1
0	1295	1060	1
0	1301	1064	1
0	1306	1068	1
0	1311	1072	1
0	1316	1076	1
0	1319	1080	1
0	1323	1084	1
0	1329	1088	1
0	1335	1092	1
0	1341	1096	1
0	1344	1100	1
0	1349	1104	1
0	1354	1108	1
0	1360	1112	1
0	1366	1116	1
0	1369	1120	1
0	1373	1124	1
0	1378	1128	1
0	1383	1132	1
0	1388	1136	1
0	1391	1140	1
0	1396	1144	1
0	1402	1148	1
0	1407	1152	1
0	1412	1156	1
0	1415	1160	1
0	1419	1164	1
0	1425	1168	1
0	1431	1172	1
0	1437	1176	1
0	1440	1180	1
0	1445	1184	1
0	1450	1188	1
0	1455	1192	1
0	1461	1196	1
0	1464	1200	1
0	1469	1204	1
0	1475	1208	1
0	1481	1212	1
0	1486	1216	1
0	1489	1220	1
0	1493	1224	1
0	1498	1228	1
0	1504	1232	1
0	1511	1236	1
0	1514	1240	1
0	1519	1244	1
0	1524	1248	1
0	1529	1252	1
0	1534	1256	1
0	1537	1260	1
0	1541	1264	1
0	1546	1268	1
0	1552	1272	1
0	1559	1276	1
0	1562	1280	1
0	1568	1284	1
0	1574	1288	1
0	1579	1292	1
0	1585	1296	1
0	1588	1300	1
0	1593	1304	1
0	1598	1308	1
0	1603	1312	1
0	1608	1316	1
0	1611	1320	1
0	1615	1324	1
0	1621	1328	1
0	1627	1332	1
0	1632	1336	1
0	1635	1340	1
0	1639	1344	1
0	1644	1348	1
0	1649	1352	1
0	1655	1356	1
0	1658	1360	1
0	1664	1364	1
0	1670	1368	1
0	1676	1372	1
0	1683	1376	1
0	1686	1380	1
0	1692	1384	1
0	1698	1388	1
0	1704	1392	1
0	1710	1396	1
0	1713	1400	1
0	1717	1404	1
0	1723	1408	1
0	1730	1412	1
0	1737	1416	1
0	1740	1420	1
0	1747	1424	1
0	1752	1428	1
0	1757	1432	1
0	1762	1436	1
0	1765	1440	1
0	1769	1444	1
0	1775	1448	1
0	1782	1452	1
0	1788	1456	1
0	1791	1460	1
0	1796	1464	1
0	1802	1468	1
0	1807	1472	1
0	1812	1476	1
0	1815	1480	1
0	1820	1484	1
0	1826	1488	1
0	1831	1492	1
0	1836	1496	1
0	1839	1500	1
0	1844	1504	1
0	1850	1508	1
0	1856	1512	1
0	1863	1516	1
0	1866	1520	1
0	1872	1524	1
0	1879	1528	1
0	1885	1532	1
0	1891	1536	1
0	1894	1540	1
0	1900	1544	1
0	1906	1548	1
0	1911	1552	1
0	1916	1556	1
0	1919	1560	1
0	1923	1564	1
0	1928	1568	1
0	1933	1572	1
0	1939	1576	1
0	1942	1580	1
0	1947	1584	1
0	1954	1588	1
0	1959	1592	1
0	1964	1596	1
0	1967	1600	1
0	1971	1604	1
0	1976	1608	1
0	1981	1612	1
0	1986	1616	1
0	1989	1620	1
0	1993	1624	1
0	1999	1628	1
0	2005	1632	1
0	2010	1636	1
0	2013	1640	1
0	2017	1644	1
0	2022	1648	1
0	2028	1652	1
0	2034	1656	1
0	2037	1660	1
0	2041	1664	1
0	2046	1668	1
0	2051	1672	1
0	2057	1676	1
0	2060	1680	1
0	2065	1684	1
0	2071	1688	1
0	2078	1692	1
0	2084	1696	1
0	2087	1700	1
0	2092	1704	1
0	2099	1708	1
0	2105	1712	1
0	2111	1716	1
0	2114	1720	1
0	2119	1724	1
0	2124	1728	1
0	2129	1732	1
0	2134	1736	1
0	2137	1740	1
0	2142	1744	1
0	2148	1748	1
0	2153	1752	1
0	2158	1756	1
0	2161	1760	1
0	2166	1764	1
0	2172	1768	1
0	2177	1772	1
0	2183	1776	1
0	2186	1780	1
0	2191	1784	1
0	2197	1788	1
0	2204	1792	1
0	2211	1796	1
0	2214	1800	1
0	2219	1804	1
0	2224	1808	1
0	2229	1812	1
0	2234	1816	1
0	2237	1820	1
0	2242	1824	1
0	2249	1828	1
0	2255	1832	1
0	2261	1836	1
0	2264	1840	1
0	2269	1844	1
0	2274	1848	1
0	2280	1852	1
0	2286	1856	1
0	2289	1860	1
0	2293	1864	1
0	2298	1868	1
0	2303	1872	1
0	2308	1876	1
0	2311	1880	1
0	2316	1884	1
0	2322	1888	1
0	2327	1892	1
0	2332	1896	1
0	2335	1900	1
0	2340	1904	1
0	2346	1908	1
0	2352	1912	1
0	2358	1916	1
0	2361	1920	1
0	2365	1924	1
0	2370	1928	1
0	2376	1932	1
0	2382	1936	1
0	2385	1940	1
0	2390	1944	1
0	2397	1948	1
0	2403	1952	1
0	2408	1956	1
0	2411	1960	1
0	2415	1964	1
0	2420	1968	1
0	2426	1972	1
0	2432	1976	1
0	2435	1980	1
0	2439	1984	1
0	2445	1988	1
0	2451	1992	1
0	2456	1996	1
0	2459	2000	1
0	2464	2004	1
0	2470	2008	1
0	2475	2012	1
0	2480	2016	1
0	2483	2020	1
0	2487	2024	1
0	2492	2028	1
0	2498	2032	1
0	2504	2036	1
0	2507	2040	1
0	2511	2044	1
0	2516	2048	1
0	2522	2052	1
0	2529	2056	1
0	2532	2060	1
0	2538	2064	1
0	2544	2068	1
0	2549	2072	1
0	2554	2076	1
0	2557	2080	1
0	2561	2084	1
0	2566	2088	1
0	2572	2092	1
0	2578	2096	1
0	2581	2100	1
0	2585	2104	1
0	2590	2108	1
0	2597	2112	1
0	2602	2116	1
0	2605	2120	1
0	2609	2124	1
0	2614	2128	1
0	2619	2132	1
0	2624	2136	1
0	2627	2140	1
0	2631	2144	1
0	2637	2148	1
0	2643	2152	1
0	2648	2156	1
0	2651	2160	1
0	2655	2164	1
0	2660	2168	1
0	2665	2172	1
0	2670	2176	1
0	2673	2180	1
0	2677	2184	1
0	2683	2188	1
0	2689	2192	1
0	2695	2196	1
0	2698	2200	1
0	2704	2204	1
0	2710	2208	1
0	2715	2212	1
0	2721	2216	1
0	2724	2220	1
0	2729	2224	1
0	2735	2228	1
0	2741	2232	1
0	2746	2236	1
0	2749	2240	1
0	2754	2244	1
0	2760	2248	1
0	2765	2252	1
0	2771	2256	1
0	2774	2260	1
0	2779	2264	1
0	2785	2268	1
0	2792	2272	1
0	2798	2276	1
0	2801	2280	1
0	2806	2284	1
0	2812	2288	1
0	2817	2292	1
0	2822	2296	1
0	2825	2300	1
0	2829	2304	1
0	2834	2308	1
0	2839	2312	1
0	2844	2316	1
0	2847	2320	1
0	2852	2324	1
0	2859	2328	1
0	2865	2332	1
0	2870	2336	1
0	2873	2340	1
0	2877	2344	1
0	2882	2348	1
0	2887	2352	1
0	2892	2356	1
0	2895	2360	1
0	2899	2364	1
0	2904	2368	1
0	2910	2372	1
0	2917	2376	1
0	2920	2380	1
0	2925	2384	1
0	2930	2388	1
0	2936	2392	1
0	2942	2396	1
0	2945	2400	1
0	2950	2404	1
0	2957	2408	1
0	2963	2412	1
0	2968	2416	1
0	2971	2420	1
0	2975	2424	1
0	2981	2428	1
0	2987	2432	1
0	2994	2436	1
0	2997	2440	1
0	3001	2444	1
0	3006	2448	1
0	3011	2452	1
0	3016	2456	1
0	3019	2460	1
0	3023	2464	1
0	3028	2468	1
0	3034	2472	1
0	3041	2476	1
0	3044	2480	1
0	3051	2484	1
0	3056	2488	1
0	3061	2492	1
0	3066	2496	1
0	3069	2500	1
0	3073	2504	1
0	3078	2508	1
0	3083	2512	1
0	3088	2516	1
0	3091	2520	1
0	3095	2524	1
0	3100	2528	1
0	3106	2532	1
0	3112	2536	1
0	3115	2540	1
0	3119	2544	1
0	3124	2548	1
0	3130	2552	1
0	3136	2556	1
0	3139	2560	1
0	3144	2564	1
0	3150	2568	1
0	3155	2572	1
0	3160	2576	1
0	3163	2580	1
0	3168	2584	1
0	3175	2588	1
0	3182	2592	1
0	3189	2596	1
0	3192	2600	1
0	3197	2604	1
0	3203	2608	1
0	3209	2612	1
0	3214	2616	1
0	3217	2620	1
0	3221	2624	1
0	3227	2628	1
0	3233	2632	1
0	3239	2636	1
0	3242	2640	1
0	3248	2644	1
0	3255	2648	1
0	3261	2652	1
0	3266	2656	1
0	3269	2660	1
0	3273	2664	1
0	3278	2668	1
0	3283	2672	1
0	3289	2676	1
0	3292	2680	1
0	3297	2684	1
0	3303	2688	1
0	3309	2692	1
0	3314	2696	1
0	3317	2700	1
0	3321	2704	1
0	3326	2708	1
0	3331	2712	1
0	3336	2716	1
0	3339	2720	1
0	3344	2724	1
0	3350	2728	1
0	3355	2732	1
0	3361	2736	1
0	3364	2740	1
0	3369	2744	1
0	3374	2748	1
0	3379	2752	1
0	3384	2756	1
0	3387	2760	1
0	3392	2764	1
0	3398	2768	1
0	3403	2772	1
0	3409	2776	1
0	3412	2780	1
0	3417	2784	1
0	3422	2788	1
0	3428	2792	1
0	3434	2796	1
0	3437	2800	1
0	3442	2804	1
0	3448	2808	1
0	3453	2812	1
0	3459	2816	1
0	3462	2820	1
0	3467	2824	1
0	3474	2828	1
0	3479	2832	1
0	3484	2836	1
0	3487	2840	1
0	3491	2844	1
0	3496	2848	1
0	3501	2852	1
0	3506	2856	1
0	3509	2860	1
0	3515	2864	1
0	3520	2868	1
0	3525	2872	1
0	3530	2876	1
0	3533	2880	1
0	3537	2884	1
0	3542	2888	1
0	3547	2892	1
0	3552	2896	1
0	3555	2900	1
0	3559	2904	1
0	3565	2908	1
0	3572	2912	1
0	3579	2916	1
0	3582	2920	1
0	3587	2924	1
0	3592	2928	1
0	3597	2932	1
0	3602	2936	1
0	3605	2940	1
0	3611	2944	1
0	3616	2948	1
0	3621	2952	1
0	3627	2956	1
0	3630	2960	1
0	3635	2964	1
0	3640	2968	1
0	3645	2972	1
0	3650	2976	1
0	3653	2980	1
0	3657	2984	1
0	3662	2988	1
0	3667	2992	1
0	3673	2996	1
0	3676	3000	1
0	3681	3004	1
0	3686	3008	1
0	3691	3012	1
0	3697	3016	1
0	3700	3020	1
0	3705	3024	1
0	3711	3028	1
0	3718	3032	1
0	3726	3036	1
0	3729	3040	1
0	3733	3044	1
0	3738	3048	1
0	3743	3052	1
0	3748	3056	1
0	3751	3060	1
0	3755	3064	1
0	3760	3068	1
0	3765	3072	1
0	3770	3076	1
0	3773	3080	1
0	3777	3084	1
0	3782	3088	1
0	3788	3092	1
0	3794	3096	1
0	3797	3100	1
0	3801	3104	1
0	3807	3108	1
0	3813	3112	1
0	3819	3116	1
0	3822	3120	1
0	3827	3124	1
0	3833	3128	1
0	3841	3132	1
0	3846	3136	1
0	3849	3140	1
0	3853	3144	1
0	3858	3148	1
0	3863	3152	1
0	3869	3156	1
0	3872	3160	1
0	3878	3164	1
0	3885	3168	1
0	3893	3172	1
0	3898	3176	1
0	3901	3180	1
0	3905	3184	1
0	3910	3188	1
0	3915	3192	1
0	3920	3196	1
0	3923	3200	1
0	3927	3204	1
0	3933	3208	1
0	3941	3212	1
0	3946	3216	1
0	3949	3220	1
0	3953	3224	1
0	3958	3228	1
0	3964	3232	1
0	3970	3236	1
0	3973	3240	1
0	3978	3244	1
0	3985	3248	1
0	3991	3252	1
0	3997	3256	1
0	4000	3260	1
0	4006	3264	1
0	4013	3268	1
0	4020	3272	1
0	4026	3276	1
0	4029	3280	1
0	4033	3284	1
0	4038	3288	1
0	4043	3292	1
0	4048	3296	1
0	4051	3300	1
0	4055	3304	1
0	4061	3308	1
0	4067	3312	1
0	4073	3316	1
0	4076	3320	1
0	4081	3324	1
0	4086	3328	1
0	4091	3332	1
0	4096	3336	1
0	4099	3340	1
0	4103	3344	1
0	4109	3348	1
0	4115	3352	1
0	4121	3356	1
0	4124	3360	1
0	4129	3364	1
0	4134	3368	1
0	4140	3372	1
0	4147	3376	1
0	4150	3380	1
0	4155	3384	1
0	4160	3388	1
0	4165	3392	1
0	4171	3396	1
0	4174	3400	1
0	4180	3404	1
0	4187	3408	1
0	4194	3412	1
0	4200	3416	1
0	4203	3420	1
0	4208	3424	1
0	4214	3428	1
0	4219	3432	1
0	4224	3436	1
0	4227	3440	1
0	4231	3444	1
0	4237	3448	1
0	4243	3452	1
0	4249	3456	1
0	4252	3460	1
0	4259	3464	1
0	4264	3468	1
0	4269	3472	1
0	4274	3476	1
0	4277	3480	1
0	4281	3484	1
0	4286	3488	1
0	4291	3492	1
0	4297	3496	1
0	4300	3500	1
0	4306	3504	1
0	4312	3508	1
0	4317	3512	1
0	4322	3516	1
0	4325	3520	1
0	4329	3524	1
0	4334	3528	1
0	4339	3532	1
0	4345	3536	1
0	4348	3540	1
0	4353	3544	1
0	4358	3548	1
0	4363	3552	1
0	4368	3556	1
0	4371	3560	1
0	4375	3564	1
0	4380	3568	1
0	4386	3572	1
0	4392	3576	1
0	4395	3580	1
0	4399	3584	1
0	4404	3588	1
0	4410	3592	1
0	4416	3596	1
0	4419	3600	1
1	2	4	1
1	7	8	1
1	12	12	1
1	17	16	1
1	20	20	1
1	24	24	1
1	29	28	1
1	34	32	1
1	41	36	1
1	44	40	1
1	48	44	1
1	53	48	1
1	58	52	1
1	63	56	1
1	66	60	1
1	71	64	1
1	78	68	1
1	85	72	1
1	92	76	1
1	95	80	1
1	100	84	1
1	105	88	1
1	110	92	1
1	116	96	1
1	119	100	1
1	124	104	1
1	129	108	1
1	135	112	1
1	142	116	1
1	145	120	1
1	150	124	1
1	155	128	1
1	162	132	1
1	167	136	1
1	170	140	1
1	174	144	1
1	179	148	1
1	184	152	1
1	189	156	1
1	192	160	1
1	196	164	1
1	202	168	1
1	208	172	1
1	213	176	1
1	216	180	1
1	220	184	1
1	225	188	1
1	231	192	1
1	237	196	1
1	240	200	1
1	245	204	1
1	252	208	1
1	259	212	1
1	266	216	1
1	269	220	1
1	274	224	1
1	279	228	1
1	284	232	1
1	289	236	1
1	292	240	1
1	297	244	1
1	303	248	1
1	308	252	1
1	313	256	1
1	316	260	1
1	320	264	1
1	325	268	1
1	331	272	1
1	337	276	1
1	340	280	1
1	344	284	1
1	350	288	1
1	356	292	1
1	361	296	1
1	364	300	1
1	370	304	1
1	375	308	1
1	380	312	1
1	385	316	1
1	388	320	1
1	392	324	1
1	398	328	1
1	404	332	1
1	409	336	1
1	412	340	1
1	418	344	1
1	423	348	1
1	428	352	1
1	433	356	1
1	436	360	1
1	440	364	1
1	445	368	1
1	450	372	1
1	455	376	1
1	458	380	1
1	464	384	1
1	469	388	1
1	474	392	1
1	479	396	1
1	482	400	1
1	486	404	1
1	491	408	1
1	496	412	1
1	501	416	1
1	504	420	1
1	508	424	1
1	513	428	1
1	518	432	1
1	523	436	1
1	526	440	1
1	530	444	1
1	535	448	1
1	541	452	1
1	547	456	1
1	550	460	1
1	555	464	1
1	561	468	1
1	566	472	1
1	571	476	1
1	574	480	1
1	579	484	1
1	585	488	1
1	590	492	1
1	595	496	1
1	598	500	1
1	602	504	1
1	607	508	1
1	612	512	1
1	617	516	1
1	620	520	1
1	624	524	1
1	629	528	1
1	634	532	1
1	639	536	1
1	642	540	1
1	647	544	1
1	654	548	1
1	660	552	1
1	666	556	1
1	669	560	1
1	675	564	1
1	682	568	1
1	688	572	1
1	693	576	1
1	696	580	1
1	702	584	1
1	707	588	1
1	712	592	1
1	717	596	1
1	720	600	1
1	724	604	1
1	729	608	1
1	734	612	1
1	739	616	1
1	742	620	1
1	746	624	1
1	751	628	1
1	757	632	1
1	764	636	1
1	767	640	1
1	773	644	1
1	780	648	1
1	786	652	1
1	792	656	1
1	795	660	1
1	800	664	1
1	805	668	1
1	811	672	1
1	818	676	1
1	821	680	1
1	827	684	1
1	834	688	1
1	840	692	1
1	845	696	1
1	848	700	1
1	853	704	1
1	860	708	1
1	866	712	1
1	871	716	1
1	874	720	1
1	878	724	1
1	884	728	1
1	890	732	1
1	895	736	1
1	898	740	1
1	903	744	1
1	910	748	1
1	916	752	1
1	921	756	1
1	924	760	1
1	928	764	1
1	934	768	1
1	941	772	1
1	947	776	1
1	950	780	1
1	956	784	1
1	961	788	1
1	966	792	1
1	971	796	1
1	974	800	1
1	978	804	1
1	983	808	1
1	988	812	1
1	994	816	1
1	997	820	1
1	1003	824	1
1	1009	828	1
1	1014	832	1
1	1019	836	1
1	1022	840	1
1	1026	844	1
1	1032	848	1
1	1039	852	1
1	1045	856	1
1	1048	860	1
1	1053	864	1
1	1060	868	1
1	1066	872	1
1	1072	876	1
1	1075	880	1
1	1082	884	1
1	1087	888	1
1	1092	892	1
1	1097	896	1
1	1100	900	1
1	1104	904	1
1	1109	908	1
1	1116	912	1
1	1121	916	1
1	1124	920	1
1	1128	924	1
1	1134	928	1
1	1140	932	1
1	1146	936	1
1	1149	940	1
1	1154	944	1
1	1159	948	1
1	1164	952	1
1	1169	956	1
1	1172	960	1
1	1176	964	1
1	1181	968	1
1	1187	972	1
1	1193	976	1
1	1196	980	1
1	1200	984	1
1	1206	988	1
1	1213	992	1
1	1219	996	1
1	1222	1000	1
1	1227	1004	1
1	1233	1008	1
1	1238	1012	1
1	1244	1016	1
1	1247	1020	1
1	1252	1024	1
1	1257	1028	1
1	1262	1032	1
1	1267	1036	1
1	1270	1040	1
1	1275	1044	1
1	1282	1048	1
1	1288	1052	1
1	1293	1056	1
1	1296	1060	1
1	1302	1064	1
1	1307	1068	1
1	1312	1072	1
1	1317	1076	1
1	1320	1080	1
1	1324	1084	1
1	1330	1088	1
1	1336	1092	1
1	1342	1096	1
1	1345	1100	1
1	1350	1104	1
1	1355	1108	1
1	1361	1112	1
1	1367	1116	1
1	1370	1120	1
1	1374	1124	1
1	1379	1128	1
1	1384	1132	1
1	1389	1136	1
1	1392	1140	1
1	1397	1144	1
1	1403	1148	1
1	1408	1152	1
1	1413	1156	1
1	1416	1160	1
1	1420	1164	1
1	1426	1168	1
1	1432	1172	1
1	1438	1176	1
1	1441	1180	1
1	1446	1184	1
1	1451	1188	1
1	1456	1192	1
1	1462	1196	1
1	1465	1200	1
1	1470	1204	1
1	1476	1208	1
1	1482	1212	1
1	1487	1216	1
1	1490	1220	1
1	1494	1224	1
1	1499	1228	1
1	1505	1232	1
1	1512	1236	1
1	1515	1240	1
1	1520	1244	1
1	1525	1248	1
1	1530	1252	1
1	1535	1256	1
1	1538	1260	1
1	1542	1264	1
1	1547	1268	1
1	1553	1272	1
1	1560	1276	1
1	1563	1280	1
1	1569	1284	1
1	1575	1288	1
1	1580	1292	1
1	1586	1296	1
1	1589	1300	1
1	1594	1304	1
1	1599	1308	1
1	1604	1312	1
1	1609	1316	1
1	1612	1320	1
1	1616	1324	1
1	1622	1328	1
1	1628	1332	1
1	1633	1336	1
1	1636	1340	1
1	1640	1344	1
1	1645	1348	1
1	1650	1352	1
1	1656	1356	1
1	1659	1360	1
1	1665	1364	1
1	1671	1368	1
1	1677	1372	1
1	1684	1376	1
1	1687	1380	1
1	1693	1384	1
1	1699	1388	1
1	1705	1392	1
1	1711	1396	1
1	1714	1400	1
1	1718	1404	1
1	1724	1408	1
1	1731	1412	1
1	1738	1416	1
1	1741	1420	1
1	1748	1424	1
1	1753	1428	1
1	1758	1432	1
1	1763	1436	1
1	1766	1440	1
1	1770	1444	1
1	1776	1448	1
1	1783	1452	1
1	1789	1456	1
1	1792	1460	1
1	1797	1464	1
1	1803	1468	1
1	1808	1472	1
1	1813	1476	1
1	1816	1480	1
1	1821	1484	1
1	1827	1488	1
1	1832	1492	1
1	1837	1496	1
1	1840	1500	1
1	1845	1504	1
1	1851	1508	1
1	1857	1512	1
1	1864	1516	1
1	1867	1520	1
1	1873	1524	1
1	1880	1528	1
1	1886	1532	1
1	1892	1536	1
1	1895	1540	1
1	1901	1544	1
1	1907	1548	1
1	1912	1552	1
1	1917	1556	1
1	1920	1560	1
1	1924	1564	1
1	1929	1568	1
1	1934	1572	1
1	1940	1576	1
1	1943	1580	1
1	1948	1584	1
1	1955	1588	1
1	1960	1592	1
1	1965	1596	1
1	1968	1600	1
1	1972	1604	1
1	1977	1608	1
1	1982	1612	1
1	1987	1616	1
1	1990	1620	1
1	1994	1624	1
1	2000	1628	1
1	2006	1632	1
1	2011	1636	1
1	2014	1640	1
1	2018	1644	1
1	2023	1648	1
1	2029	1652	1
1	2035	1656	1
1	2038	1660	1
1	2042	1664	1
1	2047	1668	1
1	2052	1672	1
1	2058	1676	1
1	2061	1680	1
1	2066	1684	1
1	2072	1688	1
1	2079	1692	1
1	2085	1696	1
1	2088	1700	1
1	2093	1704	1
1	2100	1708	1
1	2106	1712	1
1	2112	1716	1
1	2115	1720	1
1	2120	1724	1
1	2125	1728	1
1	2130	1732	1
1	2135	1736	1
1	2138	1740	1
1	2143	1744	1
1	2149	1748	1
1	2154	1752	1
1	2159	1756	1
1	2162	1760	1
1	2167	1764	1
1	2173	1768	1
1	2178	1772	1
1	2184	1776	1
1	2187	1780	1
1	2192	1784	1
1	2198	1788	1
1	2205	1792	1
1	2212	1796	1
1	2215	1800	1
1	2220	1804	1
1	2225	1808	1
1	2230	1812	1
1	2235	1816	1
1	2238	1820	1
1	2243	1824	1
1	2250	1828	1
1	2256	1832	1
1	2262	1836	1
1	2265	1840	1
1	2270	1844	1
1	2275	1848	1
1	2281	1852	1
1	2287	1856	1
1	2290	1860	1
1	2294	1864	1
1	2299	1868	1
1	2304	1872	1
1	2309	1876	1
1	2312	1880	1
1	2317	1884	1
1	2323	1888	1
1	2328	1892	1
1	2333	1896	1
1	2336	1900	1
1	2341	1904	1
1	2347	1908	1
1	2353	1912	1
1	2359	1916	1
1	2362	1920	1
1	2366	1924	1
1	2371	1928	1
1	2377	1932	1
1	2383	1936	1
1	2386	1940	1
1	2391	1944	1
1	2398	1948	1
1	2404	1952	1
1	2409	1956	1
1	2412	1960	1
1	2416	1964	1
1	2421	1968	1
1	2427	1972	1
1	2433	1976	1
1	2436	1980	1
1	2440	1984	1
1	2446	1988	1
1	2452	1992	1
1	2457	1996	1
1	2460	2000	1
1	2465	2004	1
1	2471	2008	1
1	2476	2012	1
1	2481	2016	1
1	2484	2020	1
1	2488	2024	1
1	2493	2028	1
1	2499	2032	1
1	2505	2036	1
1	2508	2040	1
1	2512	2044	1
1	2517	2048	1
1	2523	2052	1
1	2530	2056	1
1	2533	2060	1
1	2539	2064	1
1	2545	2068	1
1	2550	2072	1
1	2555	2076	1
1	2558	2080	1
1	2562	2084	1
1	2567	2088	1
1	2573	2092	1
1	2579	2096	1
1	2582	2100	1
1	2586	2104	1
1	2591	2108	1
1	2598	2112	1
1	2603	2116	1
1	2606	2120	1
1	2610	2124	1
1	2615	2128	1
1	2620	2132	1
1	2625	2136	1
1	2628	2140	1
1	2632	2144	1
1	2638	2148	1
1	2644	2152	1
1	2649	2156	1
1	2652	2160	1
1	2656	2164	1
1	2661	2168	1
1	2666	2172	1
1	2671	2176	1
1	2674	2180	1
1	2678	2184	1
1	2684	2188	1
1	2690	2192	1
1	2696	2196	1
1	2699	2200	1
1	2705	2204	1
1	2711	2208	1
1	2716	2212	1
1	2722	2216	1
1	2725	2220	1
1	2730	2224	1
1	2736	2228	1
1	2742	2232	1
1	2747	2236	1
1	2750	2240	1
1	2755	2244	1
1	2761	2248	1
1	2766	2252	1
1	2772	2256	1
1	2775	2260	1
1	2780	2264	1
1	2786	2268	1
1	2793	2272	1
1	2799	2276	1
1	2802	2280	1
1	2807	2284	1
1	2813	2288	1
1	2818	2292	1
1	2823	2296	1
1	2826	2300	1
1	2830	2304	1
1	2835	2308	1
1	2840	2312	1
1	2845	2316	1
1	2848	2320	1
1	2853	2324	1
1	2860	2328	1
1	2866	2332	1
1	2871	2336	1
1	2874	2340	1
1	2878	2344	1
1	2883	2348	1
1	2888	2352	1
1	2893	2356	1
1	2896	2360	1
1	2900	2364	1
1	2905	2368	1
1	2911	2372	1
1	2918	2376	1
1	2921	2380	1
1	2926	2384	1
1	2931	2388	1
1	2937	2392	1
1	2943	2396	1
1	2946	2400	1
1	2951	2404	1
1	2958	2408	1
1	2964	2412	1
1	2969	2416	1
1	2972	2420	1
1	2976	2424	1
1	2982	2428	1
1	2988	2432	1
1	2995	2436	1
1	2998	2440	1
1	3002	2444	1
1	3007	2448	1
1	3012	2452	1
1	3017	2456	1
1	3020	2460	1
1	3024	2464	1
1	3029	2468	1
1	3035	2472	1
1	3042	2476	1
1	3045	2480	1
1	3052	2484	1
1	3057	2488	1
1	3062	2492	1
1	3067	2496	1
1	3070	2500	1
1	3074	2504	1
1	3079	2508	1
1	3084	2512	1
1	3089	2516	1
1	3092	2520	1
1	3096	2524	1
1	3101	2528	1
1	3107	2532	1
1	3113	2536	1
1	3116	2540	1
1	3120	2544	1
1	3125	2548	1
1	3131	2552	1
1	3137	2556	1
1	3140	2560	1
1	3145	2564	1
1	3151	2568	1
1	3156	2572	1
1	3161	2576	1
1	3164	2580	1
1	3169	2584	1
1	3176	2588	1
1	3183	2592	1
1	3190	2596	1
1	3193	2600	1
1	3198	2604	1
1	3204	2608	1
1	3210	2612	1
1	3215	2616	1
1	3218	2620	1
1	3222	2624	1
1	3228	2628	1
1	3234	2632	1
1	3240	2636	1
1	3243	2640	1
1	3249	2644	1
1	3256	2648	1
1	3262	2652	1
1	3267	2656	1
1	3270	2660	1
1	3274	2664	1
1	3279	2668	1
1	3284	2672	1
1	3290	2676	1
1	3293	2680	1
1	3298	2684	1
1	3304	2688	1
1	3310	2692	1
1	3315	2696	1
1	3318	2700	1
1	3322	2704	1
1	3327	2708	1
1	3332	2712	1
1	3337	2716	1
1	3340	2720	1
1	3345	2724	1
1	3351	2728	1
1	3356	2732	1
1	3362	2736	1
1	3365	2740	1
1	3370	2744	1
1	3375	2748	1
1	3380	2752	1
1	3385	2756	1
1	3388	2760	1
1	3393	2764	1
1	3399	2768	1
1	3404	2772	1
1	3410	2776	1
1	3413	2780	1
1	3418	2784	1
1	3423	2788	1
1	3429	2792	1
1	3435	2796	1
1	3438	2800	1
1	3443	2804	1
1	3449	2808	1
1	3454	2812	1
1	3460	2816	1
1	3463	2820	1
1	3468	2824	1
1	3475	2828	1
1	3480	2832	1
1	3485	2836	1
1	3488	2840	1
1	3492	2844	1
1	3497	2848	1
1	3502	2852	1
1	3507	2856	1
1	3510	2860	1
1	3516	2864	1
1	3521	2868	1
1	3526	2872	1
1	3531	2876	1
1	3534	2880	1
1	3538	2884	1
1	3543	2888	1
1	3548	2892	1
1	3553	2896	1
1	3556	2900	1
1	3560	2904	1
1	3566	2908	1
1	3573	2912	1
1	3580	2916	1
1	3583	2920	1
1	3588	2924	1
1	3593	2928	1
1	3598	2932	1
1	3603	2936	1
1	3606	2940	1
1	3612	2944	1
1	3617	2948	1
1	3622	2952	1
1	3628	2956	1
1	3631	2960	1
1	3636	2964	1
1	3641	2968	1
1	3646	2972	1
1	3651	2976	1
1	3654	2980	1
1	3658	2984	1
1	3663	2988	1
1	3668	2992	1
1	3674	2996	1
1	3677	3000	1
1	3682	3004	1
1	3687	3008	1
1	3692	3012	1
1	3698	3016	1
1	3701	3020	1
1	3706	3024	1
1	3712	3028	1
1	3719	3032	1
1	3727	3036	1
1	3730	3040	1
1	3734	3044	1
1	3739	3048	1
1	3744	3052	1
1	3749	3056	1
1	3752	3060	1
1	3756	3064	1
1	3761	3068	1
1	3766	3072	1
1	3771	3076	1
1	3774	3080	1
1	3778	3084	1
1	3783	3088	1
1	3789	3092	1
1	3795	3096	1
1	3798	3100	1
1	3802	3104	1
1	3808	3108	1
1	3814	3112	1
1	3820	3116	1
1	3823	3120	1
1	3828	3124	1
1	3834	3128	1
1	3842	3132	1
1	3847	3136	1
1	3850	3140	1
1	3854	3144	1
1	3859	3148	1
1	3864	3152	1
1	3870	3156	1
1	3873	3160	1
1	3879	3164	1
1	3886	3168	1
1	3894	3172	1
1	3899	3176	1
1	3902	3180	1
1	3906	3184	1
1	3911	3188	1
1	3916	3192	1
1	3921	3196	1
1	3924	3200	1
1	3928	3204	1
1	3934	3208	1
1	3942	3212	1
1	3947	3216	1
1	3950	3220	1
1	3954	3224	1
1	3959	3228	1
1	3965	3232	1
1	3971	3236	1
1	3974	3240	1
1	3979	3244	1
1	3986	3248	1
1	3992	3252	1
1	3998	3256	1
1	4001	3260	1
1	4007	3264	1
1	4014	3268	1
1	4021	3272	1
1	4027	3276	1
1	4030	3280	1
1	4034	3284	1
1	4039	3288	1
1	4044	3292	1
1	4049	3296	1
1	4052	3300	1
1	4056	3304	1
1	4062	3308	1
1	4068	3312	1
1	4074	3316	1
1	4077	3320	1
1	4082	3324	1
1	4087	3328	1
1	4092	3332	1
1	4097	3336	1
1	4100	3340	1
1	4104	3344	1
1	4110	3348	1
1	4116	3352	1
1	4122	3356	1
1	4125	3360	1
1	4130	3364	1
1	4135	3368	1
1	4141	3372	1
1	4148	3376	1
1	4151	3380	1
1	4156	3384	1
1	4161	3388	1
1	4166	3392	1
1	4172	3396	1
1	4175	3400	1
1	4181	3404	1
1	4188	3408	1
1	4195	3412	1
1	4201	3416	1
1	4204	3420	1
1	4209	3424	1
1	4215	3428	1
1	4220	3432	1
1	4225	3436	1
1	4228	3440	1
1	4232	3444	1
1	4238	3448	1
1	4244	3452	1
1	4250	3456	1
1	4253	3460	1
1	4260	3464	1
1	4265	3468	1
1	4270	3472	1
1	4275	3476	1
1	4278	3480	1
1	4282	3484	1
1	4287	3488	1
1	4292	3492	1
1	4298	3496	1
1	4301	3500	1
1	4307	3504	1
1	4313	3508	1
1	4318	3512	1
1	4323	3516	1
1	4326	3520	1
1	4330	3524	1
1	4335	3528	1
1	4340	3532	1
1	4346	3536	1
1	4349	3540	1
1	4354	3544	1
1	4359	3548	1
1	4364	3552	1
1	4369	3556	1
1	4372	3560	1
1	4376	3564	1
1	4381	3568	1
1	4387	3572	1
1	4393	3576	1
1	4396	3580	1
1	4400	3584	1
1	4405	3588	1
1	4411	3592	1
1	4417	3596	1
1	4420	3600	1
2	3	5	0
2	8	10	0
2	13	15	0
2	18	20	0
2	25	25	0
2	30	30	0
2	35	35	0
2	42	40	0
2	49	45	0
2	54	50	0
2	59	55	0
2	64	60	0
2	72	65	1
2	79	70	1
2	86	75	1
2	93	80	1
2	101	85	0
2	106	90	0
2	111	95	0
2	117	100	1
2	125	105	0
2	130	110	0
2	136	115	1
2	143	120	1
2	151	125	0
2	156	130	0
2	163	135	0
2	168	140	0
2	175	145	0
2	180	150	0
2	185	155	0
2	190	160	0
2	197	165	0
2	203	170	1
2	209	175	0
2	214	180	0
2	221	185	0
2	226	190	0
2	232	195	1
2	238	200	0
2	246	205	1
2	253	210	1
2	260	215	1
2	267	220	1
2	275	225	0
2	280	230	0
2	285	235	0
2	290	240	0
2	298	245	1
2	304	250	0
2	309	255	0
2	314	260	0
2	321	265	0
2	326	270	0
2	332	275	1
2	338	280	0
2	345	285	0
2	351	290	1
2	357	295	0
2	362	300	0
2	371	305	0
2	376	310	0
2	381	315	0
2	386	320	0
2	393	325	0
2	399	330	1
2	405	335	0
2	410	340	0
2	419	345	0
2	424	350	0
2	429	355	0
2	434	360	0
2	441	365	0
2	446	370	0
2	451	375	0
2	456	380	0
2	465	385	0
2	470	390	0
2	475	395	0
2	480	400	0
2	487	405	0
2	492	410	0
2	497	415	0
2	502	420	0
2	509	425	0
2	514	430	0
2	519	435	0
2	524	440	0
2	531	445	0
2	536	450	0
2	542	455	1
2	548	460	0
2	556	465	1
2	562	470	0
2	567	475	0
2	572	480	0
2	580	485	1
2	586	490	0
2	591	495	0
2	596	500	0
2	603	505	0
2	608	510	0
2	613	515	0
2	618	520	0
2	625	525	0
2	630	530	0
2	635	535	0
2	640	540	0
2	648	545	1
2	655	550	1
2	661	555	0
2	667	560	1
2	676	565	1
2	683	570	1
2	689	575	0
2	694	580	0
2	703	585	0
2	708	590	0
2	713	595	0
2	718	600	0
2	725	605	0
2	730	610	0
2	735	615	0
2	740	620	0
2	747	625	0
2	752	630	0
2	758	635	1
2	765	640	1
2	774	645	1
2	781	650	1
2	787	655	0
2	793	660	1
2	801	665	0
2	806	670	0
2	812	675	1
2	819	680	1
2	828	685	1
2	835	690	1
2	841	695	0
2	846	700	0
2	854	705	1
2	861	710	1
2	867	715	0
2	872	720	0
2	879	725	0
2	885	730	1
2	891	735	0
2	896	740	0
2	904	745	1
2	911	750	1
2	917	755	0
2	922	760	0
2	929	765	0
2	935	770	1
2	942	775	1
2	948	780	0
2	957	785	0
2	962	790	0
2	967	795	0
2	972	800	0
2	979	805	0
2	984	810	0
2	989	815	0
2	995	820	1
2	1004	825	1
2	1010	830	0
2	1015	835	0
2	1020	840	0
2	1027	845	0
2	1033	850	1
2	1040	855	1
2	1046	860	0
2	1054	865	1
2	1061	870	1
2	1067	875	0
2	1073	880	1
2	1083	885	0
2	1088	890	0
2	1093	895	0
2	1098	900	0
2	1105	905	0
2	1110	910	0
2	1117	915	0
2	1122	920	0
2	1129	925	0
2	1135	930	1
2	1141	935	0
2	1147	940	1
2	1155	945	0
2	1160	950	0
2	1165	955	0
2	1170	960	0
2	1177	965	0
2	1182	970	0
2	1188	975	1
2	1194	980	0
2	1201	985	0
2	1207	990	1
2	1214	995	1
2	1220	1000	0
2	1228	1005	1
2	1234	1010	0
2	1239	1015	0
2	1245	1020	1
2	1253	1025	0
2	1258	1030	0
2	1263	1035	0
2	1268	1040	0
2	1276	1045	1
2	1283	1050	1
2	1289	1055	0
2	1294	1060	0
2	1303	1065	0
2	1308	1070	0
2	1313	1075	0
2	1318	1080	0
2	1325	1085	0
2	1331	1090	1
2	1337	1095	0
2	1343	1100	1
2	1351	1105	0
2	1356	1110	0
2	1362	1115	1
2	1368	1120	0
2	1375	1125	0
2	1380	1130	0
2	1385	1135	0
2	1390	1140	0
2	1398	1145	1
2	1404	1150	0
2	1409	1155	0
2	1414	1160	0
2	1421	1165	0
2	1427	1170	1
2	1433	1175	0
2	1439	1180	1
2	1447	1185	0
2	1452	1190	0
2	1457	1195	0
2	1463	1200	1
2	1471	1205	0
2	1477	1210	1
2	1483	1215	0
2	1488	1220	0
2	1495	1225	0
2	1500	1230	0
2	1506	1235	1
2	1513	1240	1
2	1521	1245	0
2	1526	1250	0
2	1531	1255	0
2	1536	1260	0
2	1543	1265	0
2	1548	1270	0
2	1554	1275	1
2	1561	1280	1
2	1570	1285	1
2	1576	1290	0
2	1581	1295	0
2	1587	1300	1
2	1595	1305	0
2	1600	1310	0
2	1605	1315	0
2	1610	1320	0
2	1617	1325	0
2	1623	1330	1
2	1629	1335	0
2	1634	1340	0
2	1641	1345	0
2	1646	1350	0
2	1651	1355	0
2	1657	1360	1
2	1666	1365	1
2	1672	1370	0
2	1678	1375	1
2	1685	1380	1
2	1694	1385	1
2	1700	1390	0
2	1706	1395	1
2	1712	1400	0
2	1719	1405	0
2	1725	1410	1
2	1732	1415	1
2	1739	1420	1
2	1749	1425	0
2	1754	1430	0
2	1759	1435	0
2	1764	1440	0
2	1771	1445	0
2	1777	1450	1
2	1784	1455	1
2	1790	1460	0
2	1798	1465	1
2	1804	1470	0
2	1809	1475	0
2	1814	1480	0
2	1822	1485	1
2	1828	1490	0
2	1833	1495	0
2	1838	1500	0
2	1846	1505	1
2	1852	1510	0
2	1858	1515	1
2	1865	1520	1
2	1874	1525	1
2	1881	1530	1
2	1887	1535	0
2	1893	1540	1
2	1902	1545	1
2	1908	1550	0
2	1913	1555	0
2	1918	1560	0
2	1925	1565	0
2	1930	1570	0
2	1935	1575	0
2	1941	1580	1
2	1949	1585	0
2	1956	1590	0
2	1961	1595	0
2	1966	1600	0
2	1973	1605	0
2	1978	1610	0
2	1983	1615	0
2	1988	1620	0
2	1995	1625	0
2	2001	1630	1
2	2007	1635	0
2	2012	1640	0
2	2019	1645	0
2	2024	1650	0
2	2030	1655	1
2	2036	1660	0
2	2043	1665	0
2	2048	1670	0
2	2053	1675	0
2	2059	1680	1
2	2067	1685	0
2	2073	1690	1
2	2080	1695	1
2	2086	1700	0
2	2094	1705	1
2	2101	1710	1
2	2107	1715	0
2	2113	1720	1
2	2121	1725	0
2	2126	1730	0
2	2131	1735	0
2	2136	1740	0
2	2144	1745	1
2	2150	1750	0
2	2155	1755	0
2	2160	1760	0
2	2168	1765	1
2	2174	1770	0
2	2179	1775	0
2	2185	1780	1
2	2193	1785	0
2	2199	1790	1
2	2206	1795	1
2	2213	1800	1
2	2221	1805	0
2	2226	1810	0
2	2231	1815	0
2	2236	1820	0
2	2244	1825	1
2	2251	1830	1
2	2257	1835	0
2	2263	1840	1
2	2271	1845	0
2	2276	1850	0
2	2282	1855	1
2	2288	1860	0
2	2295	1865	0
2	2300	1870	0
2	2305	1875	0
2	2310	1880	0
2	2318	1885	1
2	2324	1890	0
2	2329	1895	0
2	2334	1900	0
2	2342	1905	1
2	2348	1910	0
2	2354	1915	1
2	2360	1920	0
2	2367	1925	0
2	2372	1930	0
2	2378	1935	1
2	2384	1940	0
2	2392	1945	1
2	2399	1950	1
2	2405	1955	0
2	2410	1960	0
2	2417	1965	0
2	2422	1970	0
2	2428	1975	1
2	2434	1980	0
2	2441	1985	0
2	2447	1990	1
2	2453	1995	0
2	2458	2000	0
2	2466	2005	1
2	2472	2010	0
2	2477	2015	0
2	2482	2020	0
2	2489	2025	0
2	2494	2030	0
2	2500	2035	1
2	2506	2040	0
2	2513	2045	0
2	2518	2050	0
2	2524	2055	1
2	2531	2060	1
2	2540	2065	1
2	2546	2070	0
2	2551	2075	0
2	2556	2080	0
2	2563	2085	0
2	2568	2090	0
2	2574	2095	1
2	2580	2100	0
2	2587	2105	0
2	2592	2110	0
2	2599	2115	0
2	2604	2120	0
2	2611	2125	0
2	2616	2130	0
2	2621	2135	0
2	2626	2140	0
2	2633	2145	0
2	2639	2150	1
2	2645	2155	0
2	2650	2160	0
2	2657	2165	0
2	2662	2170	0
2	2667	2175	0
2	2672	2180	0
2	2679	2185	0
2	2685	2190	1
2	2691	2195	0
2	2697	2200	1
2	2706	2205	1
2	2712	2210	0
2	2717	2215	0
2	2723	2220	1
2	2731	2225	0
2	2737	2230	1
2	2743	2235	0
2	2748	2240	0
2	2756	2245	1
2	2762	2250	0
2	2767	2255	0
2	2773	2260	1
2	2781	2265	0
2	2787	2270	1
2	2794	2275	1
2	2800	2280	0
2	2808	2285	1
2	2814	2290	0
2	2819	2295	0
2	2824	2300	0
2	2831	2305	0
2	2836	2310	0
2	2841	2315	0
2	2846	2320	0
2	2854	2325	1
2	2861	2330	1
2	2867	2335	0
2	2872	2340	0
2	2879	2345	0
2	2884	2350	0
2	2889	2355	0
2	2894	2360	0
2	2901	2365	0
2	2906	2370	0
2	2912	2375	1
2	2919	2380	1
2	2927	2385	0
2	2932	2390	0
2	2938	2395	1
2	2944	2400	0
2	2952	2405	1
2	2959	2410	1
2	2965	2415	0
2	2970	2420	0
2	2977	2425	0
2	2983	2430	1
2	2989	2435	0
2	2996	2440	0
2	3003	2445	0
2	3008	2450	0
2	3013	2455	0
2	3018	2460	0
2	3025	2465	0
2	3030	2470	0
2	3036	2475	1
2	3043	2480	1
2	3053	2485	0
2	3058	2490	0
2	3063	2495	0
2	3068	2500	0
2	3075	2505	0
2	3080	2510	0
2	3085	2515	0
2	3090	2520	0
2	3097	2525	0
2	3102	2530	0
2	3108	2535	1
2	3114	2540	0
2	3121	2545	0
2	3126	2550	0
2	3132	2555	1
2	3138	2560	0
2	3146	2565	1
2	3152	2570	0
2	3157	2575	0
2	3162	2580	0
2	3170	2585	1
2	3177	2590	1
2	3184	2595	1
2	3191	2600	1
2	3199	2605	0
2	3205	2610	1
2	3211	2615	0
2	3216	2620	0
2	3223	2625	0
2	3229	2630	1
2	3235	2635	0
2	3241	2640	1
2	3250	2645	1
2	3257	2650	1
2	3263	2655	0
2	3268	2660	0
2	3275	2665	0
2	3280	2670	0
2	3285	2675	0
2	3291	2680	1
2	3299	2685	0
2	3305	2690	1
2	3311	2695	0
2	3316	2700	0
2	3323	2705	0
2	3328	2710	0
2	3333	2715	0
2	3338	2720	0
2	3346	2725	1
2	3352	2730	0
2	3357	2735	0
2	3363	2740	1
2	3371	2745	0
2	3376	2750	0
2	3381	2755	0
2	3386	2760	0
2	3394	2765	1
2	3400	2770	0
2	3405	2775	0
2	3411	2780	1
2	3419	2785	0
2	3424	2790	0
2	3430	2795	1
2	3436	2800	0
2	3444	2805	1
2	3450	2810	0
2	3455	2815	0
2	3461	2820	1
2	3469	2825	0
2	3476	2830	0
2	3481	2835	0
2	3486	2840	0
2	3493	2845	0
2	3498	2850	0
2	3503	2855	0
2	3508	2860	0
2	3517	2865	0
2	3522	2870	0
2	3527	2875	0
2	3532	2880	0
2	3539	2885	0
2	3544	2890	0
2	3549	2895	0
2	3554	2900	0
2	3561	2905	0
2	3567	2910	1
2	3574	2915	1
2	3581	2920	1
2	3589	2925	0
2	3594	2930	0
2	3599	2935	0
2	3604	2940	0
2	3613	2945	0
2	3618	2950	0
2	3623	2955	0
2	3629	2960	1
2	3637	2965	0
2	3642	2970	0
2	3647	2975	0
2	3652	2980	0
2	3659	2985	0
2	3664	2990	0
2	3669	2995	0
2	3675	3000	1
2	3683	3005	0
2	3688	3010	0
2	3693	3015	0
2	3699	3020	1
2	3707	3025	0
2	3713	3030	1
2	3720	3035	1
2	3728	3040	0
2	3735	3045	0
2	3740	3050	0
2	3745	3055	0
2	3750	3060	0
2	3757	3065	0
2	3762	3070	0
2	3767	3075	0
2	3772	3080	0
2	3779	3085	0
2	3784	3090	0
2	3790	3095	1
2	3796	3100	0
2	3803	3105	0
2	3809	3110	1
2	3815	3115	0
2	3821	3120	1
2	3829	3125	0
2	3835	3130	1
2	3843	3135	0
2	3848	3140	0
2	3855	3145	0
2	3860	3150	0
2	3865	3155	0
2	3871	3160	1
2	3880	3165	1
2	3887	3170	1
2	3895	3175	0
2	3900	3180	0
2	3907	3185	0
2	3912	3190	0
2	3917	3195	0
2	3922	3200	0
2	3929	3205	0
2	3935	3210	1
2	3943	3215	0
2	3948	3220	0
2	3955	3225	0
2	3960	3230	0
2	3966	3235	1
2	3972	3240	0
2	3980	3245	1
2	3987	3250	1
2	3993	3255	0
2	3999	3260	1
2	4008	3265	1
2	4015	3270	1
2	4022	3275	1
2	4028	3280	0
2	4035	3285	0
2	4040	3290	0
2	4045	3295	0
2	4050	3300	0
2	4057	3305	0
2	4063	3310	1
2	4069	3315	0
2	4075	3320	1
2	4083	3325	0
2	4088	3330	0
2	4093	3335	0
2	4098	3340	0
2	4105	3345	0
2	4111	3350	1
2	4117	3355	0
2	4123	3360	1
2	4131	3365	0
2	4136	3370	0
2	4142	3375	1
2	4149	3380	1
2	4157	3385	0
2	4162	3390	0
2	4167	3395	0
2	4173	3400	1
2	4182	3405	1
2	4189	3410	1
2	4196	3415	1
2	4202	3420	0
2	4210	3425	1
2	4216	3430	0
2	4221	3435	0
2	4226	3440	0
2	4233	3445	0
2	4239	3450	1
2	4245	3455	0
2	4251	3460	1
2	4261	3465	0
2	4266	3470	0
2	4271	3475	0
2	4276	3480	0
2	4283	3485	0
2	4288	3490	0
2	4293	3495	0
2	4299	3500	1
2	4308	3505	1
2	4314	3510	0
2	4319	3515	0
2	4324	3520	0
2	4331	3525	0
2	4336	3530	0
2	4341	3535	0
2	4347	3540	1
2	4355	3545	0
2	4360	3550	0
2	4365	3555	0
2	4370	3560	0
2	4377	3565	0
2	4382	3570	0
2	4388	3575	1
2	4394	3580	0
2	4401	3585	0
2	4406	3590	0
2	4412	3595	1
2	4418	3600	0
3	23	24	1
3	28	28	1
3	33	32	1
3	40	36	1
3	43	40	1
3	47	44	1
3	52	48	1
3	57	52	1
3	62	56	1
3	65	60	1
3	70	64	1
3	77	68	1
3	94	80	1
3	99	84	1
3	104	88	1
3	109	92	1
3	115	96	1
3	118	100	1
3	128	108	1
3	134	112	1
3	141	116	1
3	144	120	1
3	154	128	1
3	161	132	1
3	166	136	1
3	169	140	1
3	173	144	1
3	178	148	1
3	183	152	1
3	188	156	1
3	191	160	1
3	195	164	1
3	201	168	1
3	212	176	1
3	215	180	1
3	219	184	1
3	224	188	1
3	230	192	1
3	236	196	1
3	239	200	1
3	244	204	1
3	258	212	1
3	265	216	1
3	268	220	1
3	273	224	1
3	278	228	1
3	283	232	1
3	288	236	1
3	291	240	1
3	296	244	1
3	302	248	1
3	307	252	1
3	312	256	1
3	315	260	1
3	319	264	1
3	324	268	1
3	330	272	1
3	336	276	1
3	339	280	1
3	343	284	1
3	349	288	1
3	355	292	1
3	360	296	1
3	363	300	1
3	369	304	1
3	374	308	1
3	379	312	1
3	384	316	1
3	387	320	1
3	391	324	1
3	397	328	1
3	408	336	1
3	411	340	1
3	417	344	1
3	422	348	1
3	427	352	1
3	432	356	1
3	435	360	1
3	439	364	1
3	444	368	1
3	449	372	1
3	454	376	1
3	457	380	1
3	463	384	1
3	468	388	1
3	473	392	1
3	478	396	1
3	481	400	1
3	485	404	1
3	490	408	1
3	495	412	1
3	500	416	1
3	503	420	1
3	507	424	1
3	512	428	1
3	517	432	1
3	522	436	1
3	525	440	1
3	529	444	1
3	534	448	1
3	540	452	1
3	549	460	1
3	554	464	1
3	560	468	1
3	565	472	1
3	570	476	1
3	573	480	1
3	578	484	1
3	584	488	1
3	589	492	1
3	594	496	1
3	597	500	1
3	601	504	1
3	606	508	1
3	611	512	1
3	616	516	1
3	619	520	1
3	623	524	1
3	628	528	1
3	633	532	1
3	638	536	1
3	641	540	1
3	646	544	1
3	653	548	1
3	659	552	1
3	665	556	1
3	668	560	1
3	674	564	1
3	692	576	1
3	695	580	1
3	701	584	1
3	706	588	1
3	711	592	1
3	716	596	1
3	719	600	1
3	723	604	1
3	728	608	1
3	733	612	1
3	738	616	1
3	741	620	1
3	745	624	1
3	750	628	1
3	756	632	1
3	763	636	1
3	766	640	1
3	772	644	1
3	779	648	1
3	785	652	1
3	791	656	1
3	794	660	1
3	799	664	1
3	804	668	1
3	810	672	1
3	820	680	1
3	826	684	1
3	833	688	1
3	844	696	1
3	847	700	1
3	852	704	1
3	859	708	1
3	870	716	1
3	873	720	1
3	877	724	1
3	883	728	1
3	889	732	1
3	894	736	1
3	897	740	1
3	902	744	1
3	920	756	1
3	923	760	1
3	927	764	1
3	933	768	1
3	940	772	1
3	949	780	1
3	955	784	1
3	960	788	1
3	965	792	1
3	970	796	1
3	973	800	1
3	977	804	1
3	982	808	1
3	987	812	1
3	993	816	1
3	996	820	1
3	1002	824	1
3	1008	828	1
3	1013	832	1
3	1018	836	1
3	1021	840	1
3	1025	844	1
3	1031	848	1
3	1044	856	1
3	1047	860	1
3	1052	864	1
3	1059	868	1
3	1071	876	1
3	1074	880	1
3	1086	888	1
3	1091	892	1
3	1096	896	1
3	1099	900	1
3	1103	904	1
3	1108	908	1
3	1115	912	1
3	1120	916	1
3	1123	920	1
3	1127	924	1
3	1133	928	1
3	1139	932	1
3	1145	936	1
3	1148	940	1
3	1153	944	1
3	1158	948	1
3	1163	952	1
3	1168	956	1
3	1171	960	1
3	1175	964	1
3	1180	968	1
3	1186	972	1
3	1195	980	1
3	1199	984	1
3	1205	988	1
3	1221	1000	1
3	1226	1004	1
3	1237	1012	1
3	1243	1016	1
3	1246	1020	1
3	1256	1028	1
3	1261	1032	1
3	1266	1036	1
3	1269	1040	1
3	1274	1044	1
3	1292	1056	1
3	1295	1060	1
3	1301	1064	1
3	1306	1068	1
3	1311	1072	1
3	1316	1076	1
3	1319	1080	1
3	1323	1084	1
3	1329	1088	1
3	1341	1096	1
3	1344	1100	1
3	1349	1104	1
3	1354	1108	1
3	1360	1112	1
3	1366	1116	1
3	1369	1120	1
3	1373	1124	1
3	1378	1128	1
3	1383	1132	1
3	1388	1136	1
3	1391	1140	1
3	1396	1144	1
3	1407	1152	1
3	1412	1156	1
3	1415	1160	1
3	1419	1164	1
3	1425	1168	1
3	1437	1176	1
3	1440	1180	1
3	1450	1188	1
3	1455	1192	1
3	1461	1196	1
3	1464	1200	1
3	1475	1208	1
3	1486	1216	1
3	1489	1220	1
3	1493	1224	1
3	1498	1228	1
3	1504	1232	1
3	1514	1240	1
3	1519	1244	1
3	1524	1248	1
3	1529	1252	1
3	1534	1256	1
3	1537	1260	1
3	1541	1264	1
3	1546	1268	1
3	1552	1272	1
3	1559	1276	1
3	1562	1280	1
3	1568	1284	1
3	1574	1288	1
3	1579	1292	1
3	1585	1296	1
3	1588	1300	1
3	1593	1304	1
3	1598	1308	1
3	1603	1312	1
3	1608	1316	1
3	1611	1320	1
3	1615	1324	1
3	1621	1328	1
3	1627	1332	1
3	1632	1336	1
3	1635	1340	1
3	1639	1344	1
3	1644	1348	1
3	1649	1352	1
3	1655	1356	1
3	1658	1360	1
3	1664	1364	1
3	1676	1372	1
3	1683	1376	1
3	1686	1380	1
3	1698	1388	1
3	1704	1392	1
3	1710	1396	1
3	1713	1400	1
3	1717	1404	1
3	1723	1408	1
3	1730	1412	1
3	1740	1420	1
3	1752	1428	1
3	1757	1432	1
3	1762	1436	1
3	1765	1440	1
3	1769	1444	1
3	1775	1448	1
3	1782	1452	1
3	1791	1460	1
3	1796	1464	1
3	1807	1472	1
3	1812	1476	1
3	1815	1480	1
3	1820	1484	1
3	1831	1492	1
3	1836	1496	1
3	1839	1500	1
3	1844	1504	1
3	1856	1512	1
3	1863	1516	1
3	1866	1520	1
3	1879	1528	1
3	1885	1532	1
3	1891	1536	1
3	1894	1540	1
3	1900	1544	1
3	1911	1552	1
3	1916	1556	1
3	1919	1560	1
3	1923	1564	1
3	1928	1568	1
3	1933	1572	1
3	1939	1576	1
3	1942	1580	1
3	1954	1588	1
3	1959	1592	1
3	1964	1596	1
3	1967	1600	1
3	1971	1604	1
3	1976	1608	1
3	1981	1612	1
3	1986	1616	1
3	1989	1620	1
3	1993	1624	1
3	1999	1628	1
3	2005	1632	1
3	2010	1636	1
3	2013	1640	1
3	2017	1644	1
3	2022	1648	1
3	2028	1652	1
3	2034	1656	1
3	2037	1660	1
3	2041	1664	1
3	2046	1668	1
3	2051	1672	1
3	2057	1676	1
3	2060	1680	1
3	2065	1684	1
3	2071	1688	1
3	2087	1700	1
3	2092	1704	1
3	2111	1716	1
3	2114	1720	1
3	2124	1728	1
3	2129	1732	1
3	2134	1736	1
3	2137	1740	1
3	2142	1744	1
3	2153	1752	1
3	2158	1756	1
3	2161	1760	1
3	2166	1764	1
3	2172	1768	1
3	2177	1772	1
3	2183	1776	1
3	2186	1780	1
3	2197	1788	1
3	2204	1792	1
3	2211	1796	1
3	2214	1800	1
3	2224	1808	1
3	2229	1812	1
3	2234	1816	1
3	2237	1820	1
3	2242	1824	1
3	2249	1828	1
3	2261	1836	1
3	2264	1840	1
3	2274	1848	1
3	2280	1852	1
3	2289	1860	1
3	2293	1864	1
3	2298	1868	1
3	2303	1872	1
3	2308	1876	1
3	2311	1880	1
3	2316	1884	1
3	2327	1892	1
3	2332	1896	1
3	2335	1900	1
3	2340	1904	1
3	2346	1908	1
3	2352	1912	1
3	2361	1920	1
3	2365	1924	1
3	2370	1928	1
3	2376	1932	1
3	2382	1936	1
3	2385	1940	1
3	2390	1944	1
3	2403	1952	1
3	2408	1956	1
3	2411	1960	1
3	2415	1964	1
3	2420	1968	1
3	2426	1972	1
3	2435	1980	1
3	2439	1984	1
3	2445	1988	1
3	2456	1996	1
3	2459	2000	1
3	2464	2004	1
3	2475	2012	1
3	2480	2016	1
3	2483	2020	1
3	2487	2024	1
3	2492	2028	1
3	2498	2032	1
3	2507	2040	1
3	2511	2044	1
3	2516	2048	1
3	2522	2052	1
3	2529	2056	1
3	2532	2060	1
3	2549	2072	1
3	2554	2076	1
3	2557	2080	1
3	2561	2084	1
3	2566	2088	1
3	2572	2092	1
3	2578	2096	1
3	2581	2100	1
3	2585	2104	1
3	2590	2108	1
3	2597	2112	1
3	2602	2116	1
3	2605	2120	1
3	2609	2124	1
3	2614	2128	1
3	2619	2132	1
3	2624	2136	1
3	2627	2140	1
3	2631	2144	1
3	2637	2148	1
3	2643	2152	1
3	2648	2156	1
3	2651	2160	1
3	2655	2164	1
3	2660	2168	1
3	2665	2172	1
3	2670	2176	1
3	2673	2180	1
3	2677	2184	1
3	2683	2188	1
3	2695	2196	1
3	2698	2200	1
3	2704	2204	1
3	2710	2208	1
3	2715	2212	1
3	2721	2216	1
3	2724	2220	1
3	2735	2228	1
3	2741	2232	1
3	2746	2236	1
3	2749	2240	1
3	2754	2244	1
3	2765	2252	1
3	2771	2256	1
3	2774	2260	1
3	2785	2268	1
3	2801	2280	1
3	2806	2284	1
3	2812	2288	1
3	2817	2292	1
3	2822	2296	1
3	2825	2300	1
3	2829	2304	1
3	2834	2308	1
3	2839	2312	1
3	2844	2316	1
3	2847	2320	1
3	2852	2324	1
3	2865	2332	1
3	2870	2336	1
3	2873	2340	1
3	2877	2344	1
3	2882	2348	1
3	2887	2352	1
3	2892	2356	1
3	2895	2360	1
3	2899	2364	1
3	2904	2368	1
3	2910	2372	1
3	2917	2376	1
3	2920	2380	1
3	2930	2388	1
3	2936	2392	1
3	2942	2396	1
3	2945	2400	1
3	2950	2404	1
3	2963	2412	1
3	2968	2416	1
3	2971	2420	1
3	2975	2424	1
3	2981	2428	1
3	2994	2436	1
3	2997	2440	1
3	3001	2444	1
3	3006	2448	1
3	3011	2452	1
3	3016	2456	1
3	3019	2460	1
3	3023	2464	1
3	3028	2468	1
3	3034	2472	1
3	3044	2480	1
3	3051	2484	1
3	3056	2488	1
3	3061	2492	1
3	3066	2496	1
3	3069	2500	1
3	3073	2504	1
3	3078	2508	1
3	3083	2512	1
3	3088	2516	1
3	3091	2520	1
3	3095	2524	1
3	3100	2528	1
3	3106	2532	1
3	3112	2536	1
3	3115	2540	1
3	3119	2544	1
3	3124	2548	1
3	3130	2552	1
3	3136	2556	1
3	3139	2560	1
3	3144	2564	1
3	3155	2572	1
3	3160	2576	1
3	3163	2580	1
3	3168	2584	1
3	3192	2600	1
3	3203	2608	1
3	3209	2612	1
3	3214	2616	1
3	3217	2620	1
3	3221	2624	1
3	3227	2628	1
3	3233	2632	1
3	3239	2636	1
3	3242	2640	1
3	3248	2644	1
3	3266	2656	1
3	3269	2660	1
3	3273	2664	1
3	3278	2668	1
3	3283	2672	1
3	3289	2676	1
3	3292	2680	1
3	3303	2688	1
3	3309	2692	1
3	3314	2696	1
3	3317	2700	1
3	3321	2704	1
3	3326	2708	1
3	3331	2712	1
3	3336	2716	1
3	3339	2720	1
3	3344	2724	1
3	3355	2732	1
3	3361	2736	1
3	3364	2740	1
3	3374	2748	1
3	3379	2752	1
3	3384	2756	1
3	3387	2760	1
3	3392	2764	1
3	3403	2772	1
3	3409	2776	1
3	3412	2780	1
3	3417	2784	1
3	3422	2788	1
3	3428	2792	1
3	3437	2800	1
3	3442	2804	1
3	3448	2808	1
3	3453	2812	1
3	3459	2816	1
3	3462	2820	1
3	3474	2828	1
3	3479	2832	1
3	3484	2836	1
3	3487	2840	1
3	3491	2844	1
3	3496	2848	1
3	3501	2852	1
3	3506	2856	1
3	3509	2860	1
3	3515	2864	1
3	3520	2868	1
3	3525	2872	1
3	3530	2876	1
3	3533	2880	1
3	3537	2884	1
3	3542	2888	1
3	3547	2892	1
3	3552	2896	1
3	3555	2900	1
3	3559	2904	1
3	3565	2908	1
3	3572	2912	1
3	3582	2920	1
3	3592	2928	1
3	3597	2932	1
3	3602	2936	1
3	3605	2940	1
3	3611	2944	1
3	3616	2948	1
3	3621	2952	1
3	3627	2956	1
3	3630	2960	1
3	3635	2964	1
3	3640	2968	1
3	3645	2972	1
3	3650	2976	1
3	3653	2980	1
3	3657	2984	1
3	3662	2988	1
3	3667	2992	1
3	3673	2996	1
3	3676	3000	1
3	3686	3008	1
3	3691	3012	1
3	3697	3016	1
3	3700	3020	1
3	3711	3028	1
3	3718	3032	1
3	3726	3036	1
3	3729	3040	1
3	3733	3044	1
3	3738	3048	1
3	3743	3052	1
3	3748	3056	1
3	3751	3060	1
3	3755	3064	1
3	3760	3068	1
3	3765	3072	1
3	3770	3076	1
3	3773	3080	1
3	3777	3084	1
3	3782	3088	1
3	3788	3092	1
3	3794	3096	1
3	3797	3100	1
3	3801	3104	1
3	3807	3108	1
3	3813	3112	1
3	3819	3116	1
3	3822	3120	1
3	3833	3128	1
3	3841	3132	1
3	3846	3136	1
3	3849	3140	1
3	3853	3144	1
3	3858	3148	1
3	3863	3152	1
3	3869	3156	1
3	3872	3160	1
3	3893	3172	1
3	3898	3176	1
3	3901	3180	1
3	3905	3184	1
3	3910	3188	1
3	3915	3192	1
3	3920	3196	1
3	3923	3200	1
3	3927	3204	1
3	3933	3208	1
3	3941	3212	1
3	3946	3216	1
3	3949	3220	1
3	3953	3224	1
3	3958	3228	1
3	3964	3232	1
3	3970	3236	1
3	3973	3240	1
3	3978	3244	1
3	3985	3248	1
3	3997	3256	1
3	4000	3260	1
3	4013	3268	1
3	4020	3272	1
3	4026	3276	1
3	4029	3280	1
3	4033	3284	1
3	4038	3288	1
3	4043	3292	1
3	4048	3296	1
3	4051	3300	1
3	4055	3304	1
3	4061	3308	1
3	4067	3312	1
3	4073	3316	1
3	4076	3320	1
3	4081	3324	1
3	4086	3328	1
3	4091	3332	1
3	4096	3336	1
3	4099	3340	1
3	4103	3344	1
3	4109	3348	1
3	4115	3352	1
3	4121	3356	1
3	4124	3360	1
3	4134	3368	1
3	4140	3372	1
3	4147	3376	1
3	4150	3380	1
3	4160	3388	1
3	4165	3392	1
3	4171	3396	1
3	4174	3400	1
3	4203	3420	1
3	4208	3424	1
3	4219	3432	1
3	4224	3436	1
3	4227	3440	1
3	4231	3444	1
3	4237	3448	1
3	4243	3452	1
3	4249	3456	1
3	4252	3460	1
3	4264	3468	1
3	4269	3472	1
3	4274	3476	1
3	4277	3480	1
3	4281	3484	1
3	4286	3488	1
3	4291	3492	1
3	4297	3496	1
3	4300	3500	1
3	4312	3508	1
3	4317	3512	1
3	4322	3516	1
3	4325	3520	1
3	4329	3524	1
3	4334	3528	1
3	4339	3532	1
3	4345	3536	1
3	4348	3540	1
3	4358	3548	1
3	4363	3552	1
3	4368	3556	1
3	4371	3560	1
3	4375	3564	1
3	4380	3568	1
3	4386	3572	1
3	4392	3576	1
3	4395	3580	1
3	4399	3584	1
3	4404	3588	1
3	4410	3592	1
3	4419	3600	1
4	24	24	1
4	29	28	1
4	34	32	1
4	41	36	1
4	44	40	1
4	48	44	1
4	53	48	1
4	58	52	1
4	63	56	1
4	66	60	1
4	71	64	1
4	85	72	1
4	92	76	1
4	95	80	1
4	105	88	1
4	110	92	1
4	116	96	1
4	119	100	1
4	124	104	1
4	129	108	1
4	135	112	1
4	145	120	1
4	150	124	1
4	155	128	1
4	162	132	1
4	167	136	1
4	170	140	1
4	174	144	1
4	179	148	1
4	184	152	1
4	189	156	1
4	192	160	1
4	196	164	1
4	202	168	1
4	208	172	1
4	213	176	1
4	216	180	1
4	220	184	1
4	225	188	1
4	231	192	1
4	240	200	1
4	245	204	1
4	252	208	1
4	269	220	1
4	279	228	1
4	284	232	1
4	289	236	1
4	292	240	1
4	297	244	1
4	308	252	1
4	313	256	1
4	316	260	1
4	320	264	1
4	325	268	1
4	331	272	1
4	340	280	1
4	344	284	1
4	350	288	1
4	361	296	1
4	364	300	1
4	370	304	1
4	375	308	1
4	380	312	1
4	385	316	1
4	388	320	1
4	392	324	1
4	398	328	1
4	404	332	1
4	409	336	1
4	412	340	1
4	418	344	1
4	423	348	1
4	428	352	1
4	433	356	1
4	436	360	1
4	440	364	1
4	445	368	1
4	450	372	1
4	455	376	1
4	458	380	1
4	464	384	1
4	469	388	1
4	474	392	1
4	479	396	1
4	482	400	1
4	486	404	1
4	491	408	1
4	496	412	1
4	501	416	1
4	504	420	1
4	508	424	1
4	513	428	1
4	518	432	1
4	523	436	1
4	526	440	1
4	530	444	1
4	535	448	1
4	541	452	1
4	547	456	1
4	550	460	1
4	555	464	1
4	566	472	1
4	571	476	1
4	574	480	1
4	579	484	1
4	590	492	1
4	595	496	1
4	598	500	1
4	602	504	1
4	607	508	1
4	612	512	1
4	617	516	1
4	620	520	1
4	624	524	1
4	629	528	1
4	634	532	1
4	639	536	1
4	642	540	1
4	647	544	1
4	666	556	1
4	669	560	1
4	682	568	1
4	688	572	1
4	693	576	1
4	696	580	1
4	702	584	1
4	707	588	1
4	712	592	1
4	717	596	1
4	720	600	1
4	724	604	1
4	729	608	1
4	734	612	1
4	739	616	1
4	742	620	1
4	746	624	1
4	751	628	1
4	757	632	1
4	767	640	1
4	792	656	1
4	795	660	1
4	805	668	1
4	811	672	1
4	818	676	1
4	821	680	1
4	840	692	1
4	845	696	1
4	848	700	1
4	853	704	1
4	866	712	1
4	871	716	1
4	874	720	1
4	878	724	1
4	884	728	1
4	895	736	1
4	898	740	1
4	903	744	1
4	910	748	1
4	916	752	1
4	921	756	1
4	924	760	1
4	928	764	1
4	934	768	1
4	947	776	1
4	950	780	1
4	956	784	1
4	961	788	1
4	966	792	1
4	971	796	1
4	974	800	1
4	978	804	1
4	983	808	1
4	988	812	1
4	994	816	1
4	997	820	1
4	1014	832	1
4	1019	836	1
4	1022	840	1
4	1026	844	1
4	1032	848	1
4	1039	852	1
4	1048	860	1
4	1053	864	1
4	1066	872	1
4	1072	876	1
4	1075	880	1
4	1082	884	1
4	1087	888	1
4	1092	892	1
4	1097	896	1
4	1100	900	1
4	1104	904	1
4	1109	908	1
4	1116	912	1
4	1121	916	1
4	1124	920	1
4	1128	924	1
4	1134	928	1
4	1146	936	1
4	1149	940	1
4	1159	948	1
4	1164	952	1
4	1169	956	1
4	1172	960	1
4	1176	964	1
4	1181	968	1
4	1187	972	1
4	1193	976	1
4	1196	980	1
4	1200	984	1
4	1206	988	1
4	1213	992	1
4	1219	996	1
4	1222	1000	1
4	1227	1004	1
4	1233	1008	1
4	1238	1012	1
4	1244	1016	1
4	1247	1020	1
4	1252	1024	1
4	1257	1028	1
4	1262	1032	1
4	1267	1036	1
4	1270	1040	1
4	1275	1044	1
4	1282	1048	1
4	1288	1052	1
4	1293	1056	1
4	1296	1060	1
4	1302	1064	1
4	1307	1068	1
4	1312	1072	1
4	1317	1076	1
4	1320	1080	1
4	1324	1084	1
4	1330	1088	1
4	1336	1092	1
4	1342	1096	1
4	1345	1100	1
4	1355	1108	1
4	1361	1112	1
4	1370	1120	1
4	1374	1124	1
4	1379	1128	1
4	1384	1132	1
4	1389	1136	1
4	1392	1140	1
4	1397	1144	1
4	1403	1148	1
4	1408	1152	1
4	1413	1156	1
4	1416	1160	1
4	1420	1164	1
4	1426	1168	1
4	1432	1172	1
4	1438	1176	1
4	1441	1180	1
4	1446	1184	1
4	1451	1188	1
4	1456	1192	1
4	1462	1196	1
4	1465	1200	1
4	1470	1204	1
4	1476	1208	1
4	1482	1212	1
4	1487	1216	1
4	1490	1220	1
4	1494	1224	1
4	1499	1228	1
4	1505	1232	1
4	1512	1236	1
4	1515	1240	1
4	1525	1248	1
4	1530	1252	1
4	1535	1256	1
4	1538	1260	1
4	1542	1264	1
4	1547	1268	1
4	1553	1272	1
4	1563	1280	1
4	1580	1292	1
4	1586	1296	1
4	1589	1300	1
4	1599	1308	1
4	1604	1312	1
4	1609	1316	1
4	1612	1320	1
4	1616	1324	1
4	1622	1328	1
4	1633	1336	1
4	1636	1340	1
4	1640	1344	1
4	1645	1348	1
4	1650	1352	1
4	1656	1356	1
4	1659	1360	1
4	1671	1368	1
4	1677	1372	1
4	1687	1380	1
4	1693	1384	1
4	1705	1392	1
4	1714	1400	1
4	1718	1404	1
4	1724	1408	1
4	1738	1416	1
4	1741	1420	1
4	1748	1424	1
4	1753	1428	1
4	1758	1432	1
4	1763	1436	1
4	1766	1440	1
4	1770	1444	1
4	1776	1448	1
4	1789	1456	1
4	1792	1460	1
4	1797	1464	1
4	1803	1468	1
4	1808	1472	1
4	1813	1476	1
4	1816	1480	1
4	1821	1484	1
4	1827	1488	1
4	1832	1492	1
4	1837	1496	1
4	1840	1500	1
4	1845	1504	1
4	1851	1508	1
4	1857	1512	1
4	1867	1520	1
4	1873	1524	1
4	1892	1536	1
4	1895	1540	1
4	1907	1548	1
4	1912	1552	1
4	1917	1556	1
4	1920	1560	1
4	1924	1564	1
4	1929	1568	1
4	1934	1572	1
4	1940	1576	1
4	1943	1580	1
4	1948	1584	1
4	1955	1588	1
4	1960	1592	1
4	1965	1596	1
4	1968	1600	1
4	1972	1604	1
4	1977	1608	1
4	1982	1612	1
4	1987	1616	1
4	1990	1620	1
4	1994	1624	1
4	2000	1628	1
4	2011	1636	1
4	2014	1640	1
4	2018	1644	1
4	2023	1648	1
4	2029	1652	1
4	2038	1660	1
4	2042	1664	1
4	2047	1668	1
4	2052	1672	1
4	2058	1676	1
4	2061	1680	1
4	2072	1688	1
4	2079	1692	1
4	2085	1696	1
4	2088	1700	1
4	2093	1704	1
4	2100	1708	1
4	2106	1712	1
4	2112	1716	1
4	2115	1720	1
4	2120	1724	1
4	2125	1728	1
4	2130	1732	1
4	2135	1736	1
4	2138	1740	1
4	2143	1744	1
4	2149	1748	1
4	2154	1752	1
4	2159	1756	1
4	2162	1760	1
4	2167	1764	1
4	2178	1772	1
4	2184	1776	1
4	2187	1780	1
4	2192	1784	1
4	2198	1788	1
4	2215	1800	1
4	2220	1804	1
4	2225	1808	1
4	2230	1812	1
4	2235	1816	1
4	2238	1820	1
4	2243	1824	1
4	2256	1832	1
4	2262	1836	1
4	2265	1840	1
4	2270	1844	1
4	2275	1848	1
4	2281	1852	1
4	2287	1856	1
4	2290	1860	1
4	2294	1864	1
4	2299	1868	1
4	2304	1872	1
4	2309	1876	1
4	2312	1880	1
4	2317	1884	1
4	2323	1888	1
4	2328	1892	1
4	2333	1896	1
4	2336	1900	1
4	2341	1904	1
4	2353	1912	1
4	2359	1916	1
4	2362	1920	1
4	2366	1924	1
4	2371	1928	1
4	2377	1932	1
4	2386	1940	1
4	2391	1944	1
4	2398	1948	1
4	2409	1956	1
4	2412	1960	1
4	2416	1964	1
4	2421	1968	1
4	2427	1972	1
4	2433	1976	1
4	2436	1980	1
4	2440	1984	1
4	2446	1988	1
4	2452	1992	1
4	2457	1996	1
4	2460	2000	1
4	2465	2004	1
4	2471	2008	1
4	2476	2012	1
4	2481	2016	1
4	2484	2020	1
4	2488	2024	1
4	2493	2028	1
4	2499	2032	1
4	2505	2036	1
4	2508	2040	1
4	2512	2044	1
4	2517	2048	1
4	2523	2052	1
4	2533	2060	1
4	2539	2064	1
4	2545	2068	1
4	2550	2072	1
4	2555	2076	1
4	2558	2080	1
4	2562	2084	1
4	2567	2088	1
4	2573	2092	1
4	2582	2100	1
4	2586	2104	1
4	2591	2108	1
4	2598	2112	1
4	2603	2116	1
4	2606	2120	1
4	2610	2124	1
4	2615	2128	1
4	2620	2132	1
4	2625	2136	1
4	2628	2140	1
4	2632	2144	1
4	2638	2148	1
4	2649	2156	1
4	2652	2160	1
4	2656	2164	1
4	2661	2168	1
4	2666	2172	1
4	2671	2176	1
4	2674	2180	1
4	2678	2184	1
4	2684	2188	1
4	2690	2192	1
4	2696	2196	1
4	2699	2200	1
4	2716	2212	1
4	2722	2216	1
4	2725	2220	1
4	2730	2224	1
4	2736	2228	1
4	2747	2236	1
4	2750	2240	1
4	2755	2244	1
4	2761	2248	1
4	2766	2252	1
4	2772	2256	1
4	2775	2260	1
4	2780	2264	1
4	2786	2268	1
4	2793	2272	1
4	2799	2276	1
4	2802	2280	1
4	2807	2284	1
4	2818	2292	1
4	2823	2296	1
4	2826	2300	1
4	2830	2304	1
4	2835	2308	1
4	2840	2312	1
4	2845	2316	1
4	2848	2320	1
4	2853	2324	1
4	2860	2328	1
4	2871	2336	1
4	2874	2340	1
4	2878	2344	1
4	2883	2348	1
4	2888	2352	1
4	2893	2356	1
4	2896	2360	1
4	2900	2364	1
4	2905	2368	1
4	2911	2372	1
4	2921	2380	1
4	2926	2384	1
4	2931	2388	1
4	2937	2392	1
4	2946	2400	1
4	2951	2404	1
4	2958	2408	1
4	2969	2416	1
4	2972	2420	1
4	2976	2424	1
4	2982	2428	1
4	2988	2432	1
4	2995	2436	1
4	2998	2440	1
4	3002	2444	1
4	3007	2448	1
4	3012	2452	1
4	3017	2456	1
4	3020	2460	1
4	3024	2464	1
4	3029	2468	1
4	3035	2472	1
4	3042	2476	1
4	3045	2480	1
4	3057	2488	1
4	3062	2492	1
4	3067	2496	1
4	3070	2500	1
4	3074	2504	1
4	3079	2508	1
4	3084	2512	1
4	3089	2516	1
4	3092	2520	1
4	3096	2524	1
4	3101	2528	1
4	3107	2532	1
4	3116	2540	1
4	3120	2544	1
4	3125	2548	1
4	3131	2552	1
4	3140	2560	1
4	3145	2564	1
4	3151	2568	1
4	3156	2572	1
4	3161	2576	1
4	3164	2580	1
4	3169	2584	1
4	3176	2588	1
4	3183	2592	1
4	3190	2596	1
4	3193	2600	1
4	3198	2604	1
4	3204	2608	1
4	3215	2616	1
4	3218	2620	1
4	3222	2624	1
4	3228	2628	1
4	3240	2636	1
4	3243	2640	1
4	3256	2648	1
4	3262	2652	1
4	3267	2656	1
4	3270	2660	1
4	3274	2664	1
4	3279	2668	1
4	3284	2672	1
4	3290	2676	1
4	3293	2680	1
4	3298	2684	1
4	3304	2688	1
4	3315	2696	1
4	3318	2700	1
4	3322	2704	1
4	3327	2708	1
4	3332	2712	1
4	3337	2716	1
4	3340	2720	1
4	3345	2724	1
4	3351	2728	1
4	3356	2732	1
4	3362	2736	1
4	3365	2740	1
4	3370	2744	1
4	3375	2748	1
4	3380	2752	1
4	3385	2756	1
4	3388	2760	1
4	3393	2764	1
4	3399	2768	1
4	3404	2772	1
4	3410	2776	1
4	3413	2780	1
4	3423	2788	1
4	3429	2792	1
4	3435	2796	1
4	3438	2800	1
4	3443	2804	1
4	3454	2812	1
4	3460	2816	1
4	3463	2820	1
4	3468	2824	1
4	3475	2828	1
4	3480	2832	1
4	3485	2836	1
4	3488	2840	1
4	3492	2844	1
4	3497	2848	1
4	3502	2852	1
4	3507	2856	1
4	3510	2860	1
4	3516	2864	1
4	3521	2868	1
4	3526	2872	1
4	3531	2876	1
4	3534	2880	1
4	3538	2884	1
4	3543	2888	1
4	3548	2892	1
4	3553	2896	1
4	3556	2900	1
4	3560	2904	1
4	3566	2908	1
4	3580	2916	1
4	3583	2920	1
4	3588	2924	1
4	3593	2928	1
4	3598	2932	1
4	3603	2936	1
4	3606	2940	1
4	3612	2944	1
4	3617	2948	1
4	3622	2952	1
4	3628	2956	1
4	3631	2960	1
4	3641	2968	1
4	3646	2972	1
4	3651	2976	1
4	3654	2980	1
4	3658	2984	1
4	3663	2988	1
4	3668	2992	1
4	3674	2996	1
4	3677	3000	1
4	3682	3004	1
4	3687	3008	1
4	3692	3012	1
4	3698	3016	1
4	3701	3020	1
4	3706	3024	1
4	3712	3028	1
4	3730	3040	1
4	3734	3044	1
4	3739	3048	1
4	3744	3052	1
4	3749	3056	1
4	3752	3060	1
4	3756	3064	1
4	3761	3068	1
4	3766	3072	1
4	3771	3076	1
4	3774	3080	1
4	3778	3084	1
4	3783	3088	1
4	3789	3092	1
4	3798	3100	1
4	3802	3104	1
4	3808	3108	1
4	3820	3116	1
4	3823	3120	1
4	3828	3124	1
4	3834	3128	1
4	3847	3136	1
4	3850	3140	1
4	3854	3144	1
4	3859	3148	1
4	3864	3152	1
4	3870	3156	1
4	3873	3160	1
4	3879	3164	1
4	3886	3168	1
4	3899	3176	1
4	3902	3180	1
4	3906	3184	1
4	3911	3188	1
4	3916	3192	1
4	3921	3196	1
4	3924	3200	1
4	3928	3204	1
4	3934	3208	1
4	3947	3216	1
4	3950	3220	1
4	3954	3224	1
4	3959	3228	1
4	3965	3232	1
4	3974	3240	1
4	3979	3244	1
4	3992	3252	1
4	3998	3256	1
4	4001	3260	1
4	4007	3264	1
4	4030	3280	1
4	4034	3284	1
4	4039	3288	1
4	4044	3292	1
4	4049	3296	1
4	4052	3300	1
4	4056	3304	1
4	4062	3308	1
4	4074	3316	1
4	4077	3320	1
4	4087	3328	1
4	4092	3332	1
4	4097	3336	1
4	4100	3340	1
4	4104	3344	1
4	4110	3348	1
4	4122	3356	1
4	4125	3360	1
4	4130	3364	1
4	4135	3368	1
4	4141	3372	1
4	4151	3380	1
4	4156	3384	1
4	4161	3388	1
4	4166	3392	1
4	4172	3396	1
4	4175	3400	1
4	4181	3404	1
4	4188	3408	1
4	4195	3412	1
4	4201	3416	1
4	4204	3420	1
4	4209	3424	1
4	4215	3428	1
4	4220	3432	1
4	4225	3436	1
4	4228	3440	1
4	4232	3444	1
4	4238	3448	1
4	4250	3456	1
4	4253	3460	1
4	4260	3464	1
4	4265	3468	1
4	4270	3472	1
4	4275	3476	1
4	4278	3480	1
4	4282	3484	1
4	4287	3488	1
4	4292	3492	1
4	4298	3496	1
4	4301	3500	1
4	4307	3504	1
4	4318	3512	1
4	4323	3516	1
4	4326	3520	1
4	4330	3524	1
4	4335	3528	1
4	4340	3532	1
4	4346	3536	1
4	4349	3540	1
4	4354	3544	1
4	4359	3548	1
4	4364	3552	1
4	4369	3556	1
4	4372	3560	1
4	4376	3564	1
4	4381	3568	1
4	4387	3572	1
4	4396	3580	1
4	4400	3584	1
4	4405	3588	1
4	4411	3592	1
4	4417	3596	1
4	4420	3600	1
5	74	65	1
5	97	80	1
5	138	115	1
5	234	195	1
5	255	210	1
5	262	215	1
5	271	220	1
5	300	245	1
5	334	275	1
5	353	290	1
5	558	465	1
5	582	485	1
5	650	545	1
5	657	550	1
5	671	560	1
5	760	635	1
5	769	640	1
5	776	645	1
5	783	650	1
5	797	660	1
5	823	680	1
5	830	685	1
5	856	705	1
5	887	730	1
5	937	770	1
5	999	820	1
5	1006	825	1
5	1042	855	1
5	1056	865	1
5	1137	930	1
5	1151	940	1
5	1347	1100	1
5	1364	1115	1
5	1517	1240	1
5	1556	1275	1
5	1565	1280	1
5	1572	1285	1
5	1591	1300	1
5	1625	1330	1
5	1661	1360	1
5	1680	1375	1
5	1696	1385	1
5	1708	1395	1
5	1727	1410	1
5	1779	1450	1
5	1860	1515	1
5	1876	1525	1
5	1883	1530	1
5	1897	1540	1
5	2003	1630	1
5	2032	1655	1
5	2063	1680	1
5	2170	1765	1
5	2201	1790	1
5	2208	1795	1
5	2246	1825	1
5	2344	1905	1
5	2380	1935	1
5	2401	1950	1
5	2526	2055	1
5	2576	2095	1
5	2641	2150	1
5	2701	2200	1
5	2708	2205	1
5	2739	2230	1
5	2810	2285	1
5	2863	2330	1
5	2914	2375	1
5	2940	2395	1
5	2961	2410	1
5	3047	2480	1
5	3110	2535	1
5	3134	2555	1
5	3207	2610	1
5	3231	2630	1
5	3245	2640	1
5	3307	2690	1
5	3415	2780	1
5	3446	2805	1
5	3569	2910	1
5	3633	2960	1
5	3715	3030	1
5	3722	3035	1
5	3792	3095	1
5	3811	3110	1
5	3837	3130	1
5	3889	3170	1
5	3937	3210	1
5	3968	3235	1
5	3982	3245	1
5	4010	3265	1
5	4017	3270	1
5	4024	3275	1
5	4065	3310	1
5	4079	3320	1
5	4113	3350	1
5	4144	3375	1
5	4241	3450	1
5	4310	3505	1
5	4390	3575	1
6	74	65	61
6	97	80	72
6	138	115	103
6	234	195	179
6	255	210	190
6	262	215	147
6	271	220	136
6	300	245	129
6	334	275	79
6	353	290	78
6	558	465	249
6	582	485	261
6	650	545	297
6	657	550	274
6	671	560	268
6	760	635	167
6	769	640	152
6	776	645	97
6	783	650	98
6	797	660	96
6	823	680	44
6	830	685	41
6	856	705	57
6	887	730	78
6	937	770	106
6	999	820	136
6	1006	825	137
6	1042	855	147
6	1056	865	133
6	1137	930	158
6	1151	940	116
6	1347	1100	272
6	1364	1115	259
6	1517	1240	372
6	1556	1275	343
6	1565	1280	336
6	1572	1285	181
6	1591	1300	184
6	1625	1330	86
6	1661	1360	84
6	1680	1375	91
6	1696	1385	97
6	1708	1395	91
6	1727	1410	78
6	1779	1450	86
6	1860	1515	139
6	1876	1525	137
6	1883	1530	134
6	1897	1540	128
6	2003	1630	178
6	2032	1655	139
6	2063	1680	152
6	2170	1765	233
6	2201	1790	246
6	2208	1795	163
6	2246	1825	169
6	2344	1905	221
6	2380	1935	167
6	2401	1950	158
6	2526	2055	259
6	2576	2095	267
6	2641	2150	242
6	2701	2200	264
6	2708	2205	253
6	2739	2230	174
6	2810	2285	189
6	2863	2330	178
6	2914	2375	171
6	2940	2395	187
6	2961	2410	178
6	3047	2480	192
6	3110	2535	203
6	3134	2555	179
6	3207	2610	214
6	3231	2630	218
6	3245	2640	156
6	3307	2690	154
6	3415	2780	224
6	3446	2805	193
6	3569	2910	278
6	3633	2960	316
6	3715	3030	338
6	3722	3035	251
6	3792	3095	287
6	3811	3110	198
6	3837	3130	166
6	3889	3170	138
6	3937	3210	174
6	3968	3235	139
6	3982	3245	133
6	4010	3265	133
6	4017	3270	98
6	4024	3275	63
6	4065	3310	74
6	4079	3320	72
6	4113	3350	82
6	4144	3375	103
6	4241	3450	174
6	4310	3505	193
6	4390	3575	251
7	74	65	1
7	97	80	1
7	138	115	1
7	234	195	1
7	255	210	1
7	262	215	1
7	271	220	1
7	300	245	1
7	334	275	1
7	353	290	1
7	558	465	1
7	582	485	1
7	650	545	1
7	657	550	1
7	671	560	1
7	760	635	1
7	769	640	1
7	776	645	1
7	783	650	1
7	797	660	1
7	823	680	1
7	830	685	1
7	856	705	1
7	887	730	1
7	937	770	1
7	999	820	1
7	1006	825	1
7	1042	855	1
7	1056	865	1
7	1137	930	1
7	1151	940	1
7	1347	1100	1
7	1364	1115	1
7	1517	1240	1
7	1556	1275	1
7	1565	1280	1
7	1572	1285	1
7	1591	1300	1
7	1625	1330	1
7	1661	1360	1
7	1680	1375	1
7	1696	1385	1
7	1708	1395	1
7	1727	1410	1
7	1779	1450	1
7	1860	1515	1
7	1876	1525	1
7	1883	1530	1
7	1897	1540	1
7	2003	1630	1
7	2032	1655	1
7	2063	1680	1
7	2170	1765	1
7	2201	1790	1
7	2208	1795	1
7	2246	1825	1
7	2344	1905	1
7	2380	1935	1
7	2401	1950	1
7	2526	2055	1
7	2576	2095	1
7	2641	2150	1
7	2701	2200	1
7	2708	2205	1
7	2739	2230	1
7	2810	2285	1
7	2863	2330	1
7	2914	2375	1
7	2940	2395	1
7	2961	2410	1
7	3047	2480	1
7	3110	2535	1
7	3134	2555	1
7	3207	2610	1
7	3231	2630	1
7	3245	2640	1
7	3307	2690	1
7	3415	2780	1
7	3446	2805	1
7	3569	2910	1
7	3633	2960	1
7	3715	3030	1
7	3722	3035	1
7	3792	3095	1
7	3811	3110	1
7	3837	3130	1
7	3889	3170	1
7	3937	3210	1
7	3968	3235	1
7	3982	3245	1
7	4010	3265	1
7	4017	3270	1
7	4024	3275	1
7	4065	3310	1
7	4079	3320	1
7	4113	3350	1
7	4144	3375	1
7	4241	3450	1
7	4310	3505	1
7	4390	3575	1
8	81	70	1
8	88	75	1
8	121	100	1
8	147	120	1
8	205	170	1
8	248	205	1
8	401	330	1
8	544	455	1
8	678	565	1
8	685	570	1
8	814	675	1
8	837	690	1
8	863	710	1
8	906	745	1
8	913	750	1
8	944	775	1
8	1035	850	1
8	1063	870	1
8	1077	880	1
8	1190	975	1
8	1209	990	1
8	1216	995	1
8	1230	1005	1
8	1249	1020	1
8	1278	1045	1
8	1285	1050	1
8	1333	1090	1
8	1400	1145	1
8	1429	1170	1
8	1443	1180	1
8	1467	1200	1
8	1479	1210	1
8	1508	1235	1
8	1668	1365	1
8	1689	1380	1
8	1734	1415	1
8	1743	1420	1
8	1786	1455	1
8	1800	1465	1
8	1824	1485	1
8	1848	1505	1
8	1869	1520	1
8	1904	1545	1
8	1945	1580	1
8	2075	1690	1
8	2082	1695	1
8	2096	1705	1
8	2103	1710	1
8	2117	1720	1
8	2146	1745	1
8	2189	1780	1
8	2217	1800	1
8	2253	1830	1
8	2267	1840	1
8	2284	1855	1
8	2320	1885	1
8	2356	1915	1
8	2394	1945	1
8	2430	1975	1
8	2449	1990	1
8	2468	2005	1
8	2502	2035	1
8	2535	2060	1
8	2542	2065	1
8	2687	2190	1
8	2727	2220	1
8	2758	2245	1
8	2777	2260	1
8	2789	2270	1
8	2796	2275	1
8	2856	2325	1
8	2923	2380	1
8	2954	2405	1
8	2985	2430	1
8	3038	2475	1
8	3148	2565	1
8	3172	2585	1
8	3179	2590	1
8	3186	2595	1
8	3195	2600	1
8	3252	2645	1
8	3259	2650	1
8	3295	2680	1
8	3348	2725	1
8	3367	2740	1
8	3396	2765	1
8	3432	2795	1
8	3465	2820	1
8	3576	2915	1
8	3585	2920	1
8	3679	3000	1
8	3703	3020	1
8	3825	3120	1
8	3875	3160	1
8	3882	3165	1
8	3989	3250	1
8	4003	3260	1
8	4127	3360	1
8	4153	3380	1
8	4177	3400	1
8	4184	3405	1
8	4191	3410	1
8	4198	3415	1
8	4212	3425	1
8	4255	3460	1
8	4303	3500	1
8	4351	3540	1
8	4414	3595	1
9	81	70	66
9	88	75	67
9	121	100	88
9	147	120	104
9	205	170	150
9	248	205	133
9	401	330	254
9	544	455	351
9	678	565	441
9	685	570	398
9	814	675	467
9	837	690	358
9	863	710	254
9	906	745	177
9	913	750	178
9	944	775	99
9	1035	850	158
9	1063	870	158
9	1077	880	132
9	1190	975	223
9	1209	990	214
9	1216	995	143
9	1230	1005	133
9	1249	1020	136
9	1278	1045	69
9	1285	1050	58
9	1333	1090	94
9	1400	1145	137
9	1429	1170	146
9	1443	1180	132
9	1467	1200	148
9	1479	1210	118
9	1508	1235	87
9	1668	1365	193
9	1689	1380	196
9	1734	1415	211
9	1743	1420	208
9	1786	1455	219
9	1800	1465	97
9	1824	1485	101
9	1848	1505	89
9	1869	1520	96
9	1904	1545	89
9	1945	1580	112
9	2075	1690	202
9	2082	1695	187
9	2096	1705	181
9	2103	1710	162
9	2117	1720	136
9	2146	1745	53
9	2189	1780	84
9	2217	1800	92
9	2253	1830	118
9	2267	1840	116
9	2284	1855	107
9	2320	1885	101
9	2356	1915	111
9	2394	1945	113
9	2430	1975	131
9	2449	1990	134
9	2468	2005	117
9	2502	2035	119
9	2535	2060	112
9	2542	2065	89
9	2687	2190	198
9	2727	2220	212
9	2758	2245	209
9	2777	2260	196
9	2789	2270	202
9	2796	2275	83
9	2856	2325	101
9	2923	2380	132
9	2954	2405	141
9	2985	2430	158
9	3038	2475	199
9	3148	2565	237
9	3172	2585	201
9	3179	2590	182
9	3186	2595	163
9	3195	2600	124
9	3252	2645	77
9	3259	2650	62
9	3295	2680	88
9	3348	2725	129
9	3367	2740	136
9	3396	2765	117
9	3432	2795	143
9	3465	2820	136
9	3576	2915	187
9	3585	2920	176
9	3679	3000	232
9	3703	3020	224
9	3825	3120	296
9	3875	3160	244
9	3882	3165	241
9	3989	3250	246
9	4003	3260	236
9	4127	3360	236
9	4153	3380	216
9	4177	3400	232
9	4184	3405	153
9	4191	3410	146
9	4198	3415	51
9	4212	3425	41
9	4255	3460	56
9	4303	3500	92
9	4351	3540	128
9	4414	3595	179
10	81	70	1
10	88	75	1
10	121	100	1
10	147	120	1
10	205	170	1
10	248	205	1
10	401	330	1
10	544	455	1
10	678	565	1
10	685	570	1
10	814	675	1
10	837	690	1
10	863	710	1
10	906	745	1
10	913	750	1
10	944	775	1
10	1035	850	1
10	1063	870	1
10	1077	880	1
10	1190	975	1
10	1209	990	1
10	1216	995	1
10	1230	1005	1
10	1249	1020	1
10	1278	1045	1
10	1285	1050	1
10	1333	1090	1
10	1400	1145	1
10	1429	1170	1
10	1443	1180	1
10	1467	1200	1
10	1479	1210	1
10	1508	1235	1
10	1668	1365	1
10	1689	1380	1
10	1734	1415	1
10	1743	1420	1
10	1786	1455	1
10	1800	1465	1
10	1824	1485	1
10	1848	1505	1
10	1869	1520	1
10	1904	1545	1
10	1945	1580	1
10	2075	1690	1
10	2082	1695	1
10	2096	1705	1
10	2103	1710	1
10	2117	1720	1
10	2146	1745	1
10	2189	1780	1
10	2217	1800	1
10	2253	1830	1
10	2267	1840	1
10	2284	1855	1
10	2320	1885	1
10	2356	1915	1
10	2394	1945	1
10	2430	1975	1
10	2449	1990	1
10	2468	2005	1
10	2502	2035	1
10	2535	2060	1
10	2542	2065	1
10	2687	2190	1
10	2727	2220	1
10	2758	2245	1
10	2777	2260	1
10	2789	2270	1
10	2796	2275	1
10	2856	2325	1
10	2923	2380	1
10	2954	2405	1
10	2985	2430	1
10	3038	2475	1
10	3148	2565	1
10	3172	2585	1
10	3179	2590	1
10	3186	2595	1
10	3195	2600	1
10	3252	2645	1
10	3259	2650	1
10	3295	2680	1
10	3348	2725	1
10	3367	2740	1
10	3396	2765	1
10	3432	2795	1
10	3465	2820	1
10	3576	2915	1
10	3585	2920	1
10	3679	3000	1
10	3703	3020	1
10	3825	3120	1
10	3875	3160	1
10	3882	3165	1
10	3989	3250	1
10	4003	3260	1
10	4127	3360	1
10	4153	3380	1
10	4177	3400	1
10	4184	3405	1
10	4191	3410	1
10	4198	3415	1
10	4212	3425	1
10	4255	3460	1
10	4303	3500	1
10	4351	3540	1
10	4414	3595	1

