version 2
run FourthVerification-8-20201214-15:14:41-220648
attr configname FourthVerification
attr datetime 20201214-15:14:41
attr experiment FourthVerification
attr inifile omnetpp.ini
attr iterationvars "$0=4, $1=0.2"
attr iterationvarsf 4,0.2-
attr measurement "$0=4, $1=0.2"
attr network slottedNetwork
attr processid 220648
attr repetition 0
attr replication #0
attr resultdir results
attr runnumber 8
attr seedset 8
param **.numTransmitters 4
param **.numChannels 1
param **.bufferSize 5
param **.sendProbability 0.2
param **.expMean 4s
param **.timeSlotSize 5s
param **.thresh 20s
param **.deterministicInterarrivalTime true
param **.numTransmitters 1
param **.numChannels 1
param **.bufferSize 5
param **.sendProbability 1
param **.expMean 5s
param **.timeSlotSize 5s
param **.thresh 20s
param **.deterministicInterarrivalTime false

vector 0 slottedNetwork.transmitters[0] numPacketCreated:vector ETV
attr source numPacketCreatedSignal
vector 1 slottedNetwork.transmitters[1] numPacketCreated:vector ETV
attr source numPacketCreatedSignal
vector 2 slottedNetwork.transmitters[2] numPacketCreated:vector ETV
attr source numPacketCreatedSignal
vector 3 slottedNetwork.transmitters[3] numPacketCreated:vector ETV
attr source numPacketCreatedSignal
vector 4 slottedNetwork.ch throughput:vector ETV
attr source throughputSignal
vector 5 slottedNetwork.receivers[2] numPacketReceived:vector ETV
attr source numPacketReceivedSignal
vector 6 slottedNetwork.receivers[2] responseTime:vector ETV
attr source responseTimeSignal
vector 7 slottedNetwork.receivers[2] threshold:vector ETV
attr source thresholdSignal
vector 8 slottedNetwork.transmitters[0] numPacketDiscarded:vector ETV
attr source numPacketDiscardedSignal
vector 9 slottedNetwork.transmitters[1] numPacketDiscarded:vector ETV
attr source numPacketDiscardedSignal
vector 10 slottedNetwork.transmitters[3] numPacketDiscarded:vector ETV
attr source numPacketDiscardedSignal
vector 11 slottedNetwork.transmitters[2] numPacketDiscarded:vector ETV
attr source numPacketDiscardedSignal
vector 12 slottedNetwork.receivers[3] numPacketReceived:vector ETV
attr source numPacketReceivedSignal
vector 13 slottedNetwork.receivers[3] responseTime:vector ETV
attr source responseTimeSignal
vector 14 slottedNetwork.receivers[3] threshold:vector ETV
attr source thresholdSignal
vector 15 slottedNetwork.receivers[0] numPacketReceived:vector ETV
attr source numPacketReceivedSignal
vector 16 slottedNetwork.receivers[0] responseTime:vector ETV
attr source responseTimeSignal
vector 17 slottedNetwork.receivers[0] threshold:vector ETV
attr source thresholdSignal
vector 18 slottedNetwork.receivers[1] numPacketReceived:vector ETV
attr source numPacketReceivedSignal
vector 19 slottedNetwork.receivers[1] responseTime:vector ETV
attr source responseTimeSignal
vector 20 slottedNetwork.receivers[1] threshold:vector ETV
attr source thresholdSignal
0	1	4	1
0	11	8	1
0	21	12	1
0	30	16	1
0	35	20	1
0	45	24	1
0	54	28	1
0	63	32	1
0	72	36	1
0	77	40	1
0	87	44	1
0	96	48	1
0	106	52	1
0	116	56	1
0	121	60	1
0	129	64	1
0	139	68	1
0	149	72	1
0	158	76	1
0	163	80	1
0	173	84	1
0	182	88	1
0	193	92	1
0	202	96	1
0	207	100	1
0	215	104	1
0	224	108	1
0	234	112	1
0	244	116	1
0	249	120	1
0	259	124	1
0	268	128	1
0	277	132	1
0	286	136	1
0	291	140	1
0	300	144	1
0	310	148	1
0	319	152	1
0	328	156	1
0	333	160	1
0	343	164	1
0	354	168	1
0	363	172	1
0	372	176	1
0	377	180	1
0	385	184	1
0	394	188	1
0	404	192	1
0	414	196	1
0	419	200	1
0	427	204	1
0	437	208	1
0	447	212	1
0	457	216	1
0	462	220	1
0	472	224	1
0	482	228	1
0	492	232	1
0	503	236	1
0	508	240	1
0	519	244	1
0	528	248	1
0	538	252	1
0	548	256	1
0	553	260	1
0	561	264	1
0	570	268	1
0	581	272	1
0	591	276	1
0	596	280	1
0	605	284	1
0	615	288	1
0	626	292	1
0	636	296	1
0	641	300	1
0	649	304	1
0	658	308	1
0	667	312	1
0	678	316	1
0	683	320	1
0	691	324	1
0	700	328	1
0	709	332	1
0	719	336	1
0	724	340	1
0	733	344	1
0	742	348	1
0	751	352	1
0	761	356	1
0	766	360	1
0	775	364	1
0	785	368	1
0	797	372	1
0	806	376	1
0	811	380	1
0	819	384	1
0	828	388	1
0	838	392	1
0	848	396	1
0	853	400	1
0	862	404	1
0	872	408	1
0	882	412	1
0	893	416	1
0	898	420	1
0	907	424	1
0	917	428	1
0	927	432	1
0	937	436	1
0	942	440	1
0	952	444	1
0	963	448	1
0	975	452	1
0	984	456	1
0	989	460	1
0	998	464	1
0	1009	468	1
0	1019	472	1
0	1029	476	1
0	1034	480	1
0	1043	484	1
0	1053	488	1
0	1063	492	1
0	1074	496	1
0	1079	500	1
0	1087	504	1
0	1096	508	1
0	1106	512	1
0	1116	516	1
0	1121	520	1
0	1132	524	1
0	1141	528	1
0	1150	532	1
0	1159	536	1
0	1164	540	1
0	1172	544	1
0	1181	548	1
0	1190	552	1
0	1199	556	1
0	1204	560	1
0	1214	564	1
0	1223	568	1
0	1233	572	1
0	1243	576	1
0	1248	580	1
0	1257	584	1
0	1269	588	1
0	1278	592	1
0	1287	596	1
0	1292	600	1
0	1300	604	1
0	1310	608	1
0	1321	612	1
0	1332	616	1
0	1337	620	1
0	1347	624	1
0	1357	628	1
0	1366	632	1
0	1376	636	1
0	1381	640	1
0	1393	644	1
0	1402	648	1
0	1412	652	1
0	1422	656	1
0	1427	660	1
0	1436	664	1
0	1446	668	1
0	1455	672	1
0	1465	676	1
0	1470	680	1
0	1480	684	1
0	1491	688	1
0	1503	692	1
0	1512	696	1
0	1517	700	1
0	1525	704	1
0	1535	708	1
0	1546	712	1
0	1557	716	1
0	1562	720	1
0	1572	724	1
0	1582	728	1
0	1591	732	1
0	1601	736	1
0	1606	740	1
0	1616	744	1
0	1627	748	1
0	1639	752	1
0	1649	756	1
0	1654	760	1
0	1663	764	1
0	1674	768	1
0	1683	772	1
0	1692	776	1
0	1697	780	1
0	1705	784	1
0	1714	788	1
0	1723	792	1
0	1732	796	1
0	1737	800	1
0	1745	804	1
0	1754	808	1
0	1763	812	1
0	1773	816	1
0	1778	820	1
0	1787	824	1
0	1797	828	1
0	1807	832	1
0	1816	836	1
0	1821	840	1
0	1829	844	1
0	1841	848	1
0	1850	852	1
0	1859	856	1
0	1864	860	1
0	1872	864	1
0	1881	868	1
0	1890	872	1
0	1900	876	1
0	1905	880	1
0	1914	884	1
0	1924	888	1
0	1935	892	1
0	1945	896	1
0	1950	900	1
0	1960	904	1
0	1970	908	1
0	1980	912	1
0	1990	916	1
0	1995	920	1
0	2004	924	1
0	2013	928	1
0	2022	932	1
0	2032	936	1
0	2037	940	1
0	2048	944	1
0	2057	948	1
0	2066	952	1
0	2076	956	1
0	2081	960	1
0	2090	964	1
0	2099	968	1
0	2110	972	1
0	2119	976	1
0	2124	980	1
0	2132	984	1
0	2141	988	1
0	2151	992	1
0	2161	996	1
0	2166	1000	1
0	2174	1004	1
0	2183	1008	1
0	2192	1012	1
0	2202	1016	1
0	2207	1020	1
0	2217	1024	1
0	2227	1028	1
0	2237	1032	1
0	2248	1036	1
0	2253	1040	1
0	2263	1044	1
0	2274	1048	1
0	2285	1052	1
0	2295	1056	1
0	2300	1060	1
0	2309	1064	1
0	2320	1068	1
0	2330	1072	1
0	2340	1076	1
0	2345	1080	1
0	2356	1084	1
0	2365	1088	1
0	2374	1092	1
0	2384	1096	1
0	2389	1100	1
0	2398	1104	1
0	2408	1108	1
0	2418	1112	1
0	2427	1116	1
0	2432	1120	1
0	2440	1124	1
0	2450	1128	1
0	2461	1132	1
0	2471	1136	1
0	2476	1140	1
0	2484	1144	1
0	2494	1148	1
0	2505	1152	1
0	2515	1156	1
0	2520	1160	1
0	2528	1164	1
0	2540	1168	1
0	2549	1172	1
0	2558	1176	1
0	2563	1180	1
0	2571	1184	1
0	2581	1188	1
0	2592	1192	1
0	2602	1196	1
0	2607	1200	1
0	2615	1204	1
0	2625	1208	1
0	2635	1212	1
0	2646	1216	1
0	2651	1220	1
0	2659	1224	1
0	2668	1228	1
0	2677	1232	1
0	2687	1236	1
0	2692	1240	1
0	2703	1244	1
0	2713	1248	1
0	2723	1252	1
0	2732	1256	1
0	2737	1260	1
0	2746	1264	1
0	2758	1268	1
0	2767	1272	1
0	2776	1276	1
0	2781	1280	1
0	2789	1284	1
0	2799	1288	1
0	2809	1292	1
0	2818	1296	1
0	2823	1300	1
0	2831	1304	1
0	2840	1308	1
0	2850	1312	1
0	2861	1316	1
0	2866	1320	1
0	2876	1324	1
0	2886	1328	1
0	2896	1332	1
0	2907	1336	1
0	2912	1340	1
0	2923	1344	1
0	2932	1348	1
0	2941	1352	1
0	2951	1356	1
0	2956	1360	1
0	2965	1364	1
0	2975	1368	1
0	2986	1372	1
0	2996	1376	1
0	3001	1380	1
0	3010	1384	1
0	3021	1388	1
0	3032	1392	1
0	3042	1396	1
0	3047	1400	1
0	3057	1404	1
0	3066	1408	1
0	3075	1412	1
0	3084	1416	1
0	3089	1420	1
0	3097	1424	1
0	3107	1428	1
0	3119	1432	1
0	3128	1436	1
0	3133	1440	1
0	3141	1444	1
0	3151	1448	1
0	3162	1452	1
0	3172	1456	1
0	3177	1460	1
0	3185	1464	1
0	3195	1468	1
0	3206	1472	1
0	3216	1476	1
0	3221	1480	1
0	3229	1484	1
0	3239	1488	1
0	3252	1492	1
0	3261	1496	1
0	3266	1500	1
0	3274	1504	1
0	3283	1508	1
0	3292	1512	1
0	3301	1516	1
0	3306	1520	1
0	3316	1524	1
0	3325	1528	1
0	3336	1532	1
0	3345	1536	1
0	3350	1540	1
0	3358	1544	1
0	3367	1548	1
0	3376	1552	1
0	3385	1556	1
0	3390	1560	1
0	3399	1564	1
0	3409	1568	1
0	3418	1572	1
0	3428	1576	1
0	3433	1580	1
0	3443	1584	1
0	3455	1588	1
0	3464	1592	1
0	3474	1596	1
0	3479	1600	1
0	3489	1604	1
0	3499	1608	1
0	3509	1612	1
0	3521	1616	1
0	3526	1620	1
0	3534	1624	1
0	3543	1628	1
0	3552	1632	1
0	3563	1636	1
0	3568	1640	1
0	3576	1644	1
0	3585	1648	1
0	3594	1652	1
0	3605	1656	1
0	3610	1660	1
0	3618	1664	1
0	3627	1668	1
0	3636	1672	1
0	3645	1676	1
0	3650	1680	1
0	3658	1684	1
0	3667	1688	1
0	3677	1692	1
0	3688	1696	1
0	3693	1700	1
0	3703	1704	1
0	3715	1708	1
0	3724	1712	1
0	3733	1716	1
0	3738	1720	1
0	3747	1724	1
0	3758	1728	1
0	3770	1732	1
0	3779	1736	1
0	3784	1740	1
0	3792	1744	1
0	3802	1748	1
0	3812	1752	1
0	3821	1756	1
0	3826	1760	1
0	3835	1764	1
0	3846	1768	1
0	3856	1772	1
0	3865	1776	1
0	3870	1780	1
0	3881	1784	1
0	3891	1788	1
0	3901	1792	1
0	3910	1796	1
0	3915	1800	1
0	3923	1804	1
0	3932	1808	1
0	3942	1812	1
0	3952	1816	1
0	3957	1820	1
0	3966	1824	1
0	3977	1828	1
0	3989	1832	1
0	3998	1836	1
0	4003	1840	1
0	4011	1844	1
0	4020	1848	1
0	4029	1852	1
0	4039	1856	1
0	4044	1860	1
0	4054	1864	1
0	4065	1868	1
0	4076	1872	1
0	4088	1876	1
0	4093	1880	1
0	4101	1884	1
0	4111	1888	1
0	4121	1892	1
0	4131	1896	1
0	4136	1900	1
0	4145	1904	1
0	4155	1908	1
0	4165	1912	1
0	4175	1916	1
0	4180	1920	1
0	4190	1924	1
0	4200	1928	1
0	4209	1932	1
0	4220	1936	1
0	4225	1940	1
0	4234	1944	1
0	4245	1948	1
0	4255	1952	1
0	4265	1956	1
0	4270	1960	1
0	4279	1964	1
0	4288	1968	1
0	4298	1972	1
0	4308	1976	1
0	4313	1980	1
0	4321	1984	1
0	4332	1988	1
0	4341	1992	1
0	4350	1996	1
0	4355	2000	1
0	4363	2004	1
0	4374	2008	1
0	4383	2012	1
0	4392	2016	1
0	4397	2020	1
0	4405	2024	1
0	4415	2028	1
0	4425	2032	1
0	4434	2036	1
0	4439	2040	1
0	4449	2044	1
0	4459	2048	1
0	4469	2052	1
0	4478	2056	1
0	4483	2060	1
0	4491	2064	1
0	4500	2068	1
0	4509	2072	1
0	4518	2076	1
0	4523	2080	1
0	4531	2084	1
0	4541	2088	1
0	4554	2092	1
0	4563	2096	1
0	4568	2100	1
0	4576	2104	1
0	4586	2108	1
0	4596	2112	1
0	4607	2116	1
0	4612	2120	1
0	4620	2124	1
0	4629	2128	1
0	4638	2132	1
0	4647	2136	1
0	4652	2140	1
0	4660	2144	1
0	4670	2148	1
0	4681	2152	1
0	4691	2156	1
0	4696	2160	1
0	4704	2164	1
0	4713	2168	1
0	4722	2172	1
0	4731	2176	1
0	4736	2180	1
0	4744	2184	1
0	4754	2188	1
0	4764	2192	1
0	4774	2196	1
0	4779	2200	1
0	4789	2204	1
0	4800	2208	1
0	4811	2212	1
0	4823	2216	1
0	4828	2220	1
0	4836	2224	1
0	4846	2228	1
0	4856	2232	1
0	4866	2236	1
0	4871	2240	1
0	4881	2244	1
0	4891	2248	1
0	4900	2252	1
0	4910	2256	1
0	4915	2260	1
0	4925	2264	1
0	4935	2268	1
0	4946	2272	1
0	4955	2276	1
0	4960	2280	1
0	4968	2284	1
0	4977	2288	1
0	4986	2292	1
0	4995	2296	1
0	5000	2300	1
0	5010	2304	1
0	5019	2308	1
0	5028	2312	1
0	5038	2316	1
0	5043	2320	1
0	5052	2324	1
0	5061	2328	1
0	5070	2332	1
0	5080	2336	1
0	5085	2340	1
0	5096	2344	1
0	5106	2348	1
0	5117	2352	1
0	5127	2356	1
0	5132	2360	1
0	5140	2364	1
0	5149	2368	1
0	5159	2372	1
0	5169	2376	1
0	5174	2380	1
0	5182	2384	1
0	5194	2388	1
0	5203	2392	1
0	5212	2396	1
0	5217	2400	1
0	5225	2404	1
0	5234	2408	1
0	5243	2412	1
0	5253	2416	1
0	5258	2420	1
0	5268	2424	1
0	5279	2428	1
0	5290	2432	1
0	5302	2436	1
0	5307	2440	1
0	5315	2444	1
0	5325	2448	1
0	5335	2452	1
0	5344	2456	1
0	5349	2460	1
0	5358	2464	1
0	5368	2468	1
0	5377	2472	1
0	5386	2476	1
0	5391	2480	1
0	5400	2484	1
0	5410	2488	1
0	5420	2492	1
0	5431	2496	1
0	5436	2500	1
0	5446	2504	1
0	5458	2508	1
0	5467	2512	1
0	5478	2516	1
0	5483	2520	1
0	5491	2524	1
0	5500	2528	1
0	5509	2532	1
0	5519	2536	1
0	5524	2540	1
0	5533	2544	1
0	5542	2548	1
0	5552	2552	1
0	5562	2556	1
0	5567	2560	1
0	5575	2564	1
0	5586	2568	1
0	5596	2572	1
0	5606	2576	1
0	5611	2580	1
0	5619	2584	1
0	5628	2588	1
0	5638	2592	1
0	5648	2596	1
0	5653	2600	1
0	5663	2604	1
0	5672	2608	1
0	5681	2612	1
0	5690	2616	1
0	5695	2620	1
0	5703	2624	1
0	5712	2628	1
0	5723	2632	1
0	5733	2636	1
0	5738	2640	1
0	5747	2644	1
0	5757	2648	1
0	5767	2652	1
0	5776	2656	1
0	5781	2660	1
0	5789	2664	1
0	5798	2668	1
0	5808	2672	1
0	5819	2676	1
0	5824	2680	1
0	5834	2684	1
0	5845	2688	1
0	5856	2692	1
0	5866	2696	1
0	5871	2700	1
0	5880	2704	1
0	5891	2708	1
0	5903	2712	1
0	5914	2716	1
0	5919	2720	1
0	5927	2724	1
0	5936	2728	1
0	5945	2732	1
0	5955	2736	1
0	5960	2740	1
0	5970	2744	1
0	5982	2748	1
0	5991	2752	1
0	6000	2756	1
0	6005	2760	1
0	6014	2764	1
0	6025	2768	1
0	6037	2772	1
0	6047	2776	1
0	6052	2780	1
0	6061	2784	1
0	6070	2788	1
0	6079	2792	1
0	6089	2796	1
0	6094	2800	1
0	6103	2804	1
0	6113	2808	1
0	6123	2812	1
0	6132	2816	1
0	6137	2820	1
0	6145	2824	1
0	6154	2828	1
0	6163	2832	1
0	6172	2836	1
0	6177	2840	1
0	6186	2844	1
0	6197	2848	1
0	6207	2852	1
0	6218	2856	1
0	6223	2860	1
0	6231	2864	1
0	6240	2868	1
0	6249	2872	1
0	6259	2876	1
0	6264	2880	1
0	6274	2884	1
0	6285	2888	1
0	6295	2892	1
0	6305	2896	1
0	6310	2900	1
0	6319	2904	1
0	6328	2908	1
0	6337	2912	1
0	6347	2916	1
0	6352	2920	1
0	6362	2924	1
0	6373	2928	1
0	6383	2932	1
0	6392	2936	1
0	6397	2940	1
0	6405	2944	1
0	6416	2948	1
0	6426	2952	1
0	6436	2956	1
0	6441	2960	1
0	6450	2964	1
0	6461	2968	1
0	6471	2972	1
0	6480	2976	1
0	6485	2980	1
0	6494	2984	1
0	6505	2988	1
0	6516	2992	1
0	6527	2996	1
0	6532	3000	1
0	6541	3004	1
0	6550	3008	1
0	6560	3012	1
0	6571	3016	1
0	6576	3020	1
0	6586	3024	1
0	6597	3028	1
0	6608	3032	1
0	6619	3036	1
0	6624	3040	1
0	6634	3044	1
0	6645	3048	1
0	6656	3052	1
0	6667	3056	1
0	6672	3060	1
0	6681	3064	1
0	6693	3068	1
0	6702	3072	1
0	6711	3076	1
0	6716	3080	1
0	6725	3084	1
0	6736	3088	1
0	6747	3092	1
0	6759	3096	1
0	6764	3100	1
0	6772	3104	1
0	6781	3108	1
0	6790	3112	1
0	6800	3116	1
0	6805	3120	1
0	6814	3124	1
0	6823	3128	1
0	6832	3132	1
0	6841	3136	1
0	6846	3140	1
0	6856	3144	1
0	6866	3148	1
0	6877	3152	1
0	6887	3156	1
0	6892	3160	1
0	6900	3164	1
0	6910	3168	1
0	6920	3172	1
0	6929	3176	1
0	6934	3180	1
0	6943	3184	1
0	6953	3188	1
0	6962	3192	1
0	6973	3196	1
0	6978	3200	1
0	6986	3204	1
0	6995	3208	1
0	7004	3212	1
0	7013	3216	1
0	7018	3220	1
0	7027	3224	1
0	7038	3228	1
0	7048	3232	1
0	7058	3236	1
0	7063	3240	1
0	7073	3244	1
0	7084	3248	1
0	7095	3252	1
0	7106	3256	1
0	7111	3260	1
0	7121	3264	1
0	7133	3268	1
0	7142	3272	1
0	7152	3276	1
0	7157	3280	1
0	7166	3284	1
0	7177	3288	1
0	7186	3292	1
0	7195	3296	1
0	7200	3300	1
0	7209	3304	1
0	7220	3308	1
0	7232	3312	1
0	7242	3316	1
0	7247	3320	1
0	7256	3324	1
0	7266	3328	1
0	7276	3332	1
0	7285	3336	1
0	7290	3340	1
0	7299	3344	1
0	7311	3348	1
0	7320	3352	1
0	7329	3356	1
0	7334	3360	1
0	7344	3364	1
0	7353	3368	1
0	7362	3372	1
0	7371	3376	1
0	7376	3380	1
0	7384	3384	1
0	7393	3388	1
0	7403	3392	1
0	7415	3396	1
0	7420	3400	1
0	7428	3404	1
0	7438	3408	1
0	7449	3412	1
0	7459	3416	1
0	7464	3420	1
0	7473	3424	1
0	7483	3428	1
0	7492	3432	1
0	7502	3436	1
0	7507	3440	1
0	7517	3444	1
0	7527	3448	1
0	7536	3452	1
0	7545	3456	1
0	7550	3460	1
0	7559	3464	1
0	7571	3468	1
0	7580	3472	1
0	7589	3476	1
0	7594	3480	1
0	7603	3484	1
0	7613	3488	1
0	7623	3492	1
0	7633	3496	1
0	7638	3500	1
0	7647	3504	1
0	7657	3508	1
0	7668	3512	1
0	7677	3516	1
0	7682	3520	1
0	7690	3524	1
0	7700	3528	1
0	7711	3532	1
0	7721	3536	1
0	7726	3540	1
0	7734	3544	1
0	7744	3548	1
0	7755	3552	1
0	7765	3556	1
0	7770	3560	1
0	7778	3564	1
0	7787	3568	1
0	7796	3572	1
0	7806	3576	1
0	7811	3580	1
0	7821	3584	1
0	7831	3588	1
0	7841	3592	1
0	7853	3596	1
0	7858	3600	1
1	2	4	1
1	12	8	1
1	22	12	1
1	31	16	1
1	36	20	1
1	46	24	1
1	55	28	1
1	64	32	1
1	73	36	1
1	78	40	1
1	88	44	1
1	97	48	1
1	107	52	1
1	117	56	1
1	122	60	1
1	130	64	1
1	140	68	1
1	150	72	1
1	159	76	1
1	164	80	1
1	174	84	1
1	183	88	1
1	194	92	1
1	203	96	1
1	208	100	1
1	216	104	1
1	225	108	1
1	235	112	1
1	245	116	1
1	250	120	1
1	260	124	1
1	269	128	1
1	278	132	1
1	287	136	1
1	292	140	1
1	301	144	1
1	311	148	1
1	320	152	1
1	329	156	1
1	334	160	1
1	344	164	1
1	355	168	1
1	364	172	1
1	373	176	1
1	378	180	1
1	386	184	1
1	395	188	1
1	405	192	1
1	415	196	1
1	420	200	1
1	428	204	1
1	438	208	1
1	448	212	1
1	458	216	1
1	463	220	1
1	473	224	1
1	483	228	1
1	493	232	1
1	504	236	1
1	509	240	1
1	520	244	1
1	529	248	1
1	539	252	1
1	549	256	1
1	554	260	1
1	562	264	1
1	571	268	1
1	582	272	1
1	592	276	1
1	597	280	1
1	606	284	1
1	616	288	1
1	627	292	1
1	637	296	1
1	642	300	1
1	650	304	1
1	659	308	1
1	668	312	1
1	679	316	1
1	684	320	1
1	692	324	1
1	701	328	1
1	710	332	1
1	720	336	1
1	725	340	1
1	734	344	1
1	743	348	1
1	752	352	1
1	762	356	1
1	767	360	1
1	776	364	1
1	786	368	1
1	798	372	1
1	807	376	1
1	812	380	1
1	820	384	1
1	829	388	1
1	839	392	1
1	849	396	1
1	854	400	1
1	863	404	1
1	873	408	1
1	883	412	1
1	894	416	1
1	899	420	1
1	908	424	1
1	918	428	1
1	928	432	1
1	938	436	1
1	943	440	1
1	953	444	1
1	964	448	1
1	976	452	1
1	985	456	1
1	990	460	1
1	999	464	1
1	1010	468	1
1	1020	472	1
1	1030	476	1
1	1035	480	1
1	1044	484	1
1	1054	488	1
1	1064	492	1
1	1075	496	1
1	1080	500	1
1	1088	504	1
1	1097	508	1
1	1107	512	1
1	1117	516	1
1	1122	520	1
1	1133	524	1
1	1142	528	1
1	1151	532	1
1	1160	536	1
1	1165	540	1
1	1173	544	1
1	1182	548	1
1	1191	552	1
1	1200	556	1
1	1205	560	1
1	1215	564	1
1	1224	568	1
1	1234	572	1
1	1244	576	1
1	1249	580	1
1	1258	584	1
1	1270	588	1
1	1279	592	1
1	1288	596	1
1	1293	600	1
1	1301	604	1
1	1311	608	1
1	1322	612	1
1	1333	616	1
1	1338	620	1
1	1348	624	1
1	1358	628	1
1	1367	632	1
1	1377	636	1
1	1382	640	1
1	1394	644	1
1	1403	648	1
1	1413	652	1
1	1423	656	1
1	1428	660	1
1	1437	664	1
1	1447	668	1
1	1456	672	1
1	1466	676	1
1	1471	680	1
1	1481	684	1
1	1492	688	1
1	1504	692	1
1	1513	696	1
1	1518	700	1
1	1526	704	1
1	1536	708	1
1	1547	712	1
1	1558	716	1
1	1563	720	1
1	1573	724	1
1	1583	728	1
1	1592	732	1
1	1602	736	1
1	1607	740	1
1	1617	744	1
1	1628	748	1
1	1640	752	1
1	1650	756	1
1	1655	760	1
1	1664	764	1
1	1675	768	1
1	1684	772	1
1	1693	776	1
1	1698	780	1
1	1706	784	1
1	1715	788	1
1	1724	792	1
1	1733	796	1
1	1738	800	1
1	1746	804	1
1	1755	808	1
1	1764	812	1
1	1774	816	1
1	1779	820	1
1	1788	824	1
1	1798	828	1
1	1808	832	1
1	1817	836	1
1	1822	840	1
1	1830	844	1
1	1842	848	1
1	1851	852	1
1	1860	856	1
1	1865	860	1
1	1873	864	1
1	1882	868	1
1	1891	872	1
1	1901	876	1
1	1906	880	1
1	1915	884	1
1	1925	888	1
1	1936	892	1
1	1946	896	1
1	1951	900	1
1	1961	904	1
1	1971	908	1
1	1981	912	1
1	1991	916	1
1	1996	920	1
1	2005	924	1
1	2014	928	1
1	2023	932	1
1	2033	936	1
1	2038	940	1
1	2049	944	1
1	2058	948	1
1	2067	952	1
1	2077	956	1
1	2082	960	1
1	2091	964	1
1	2100	968	1
1	2111	972	1
1	2120	976	1
1	2125	980	1
1	2133	984	1
1	2142	988	1
1	2152	992	1
1	2162	996	1
1	2167	1000	1
1	2175	1004	1
1	2184	1008	1
1	2193	1012	1
1	2203	1016	1
1	2208	1020	1
1	2218	1024	1
1	2228	1028	1
1	2238	1032	1
1	2249	1036	1
1	2254	1040	1
1	2264	1044	1
1	2275	1048	1
1	2286	1052	1
1	2296	1056	1
1	2301	1060	1
1	2310	1064	1
1	2321	1068	1
1	2331	1072	1
1	2341	1076	1
1	2346	1080	1
1	2357	1084	1
1	2366	1088	1
1	2375	1092	1
1	2385	1096	1
1	2390	1100	1
1	2399	1104	1
1	2409	1108	1
1	2419	1112	1
1	2428	1116	1
1	2433	1120	1
1	2441	1124	1
1	2451	1128	1
1	2462	1132	1
1	2472	1136	1
1	2477	1140	1
1	2485	1144	1
1	2495	1148	1
1	2506	1152	1
1	2516	1156	1
1	2521	1160	1
1	2529	1164	1
1	2541	1168	1
1	2550	1172	1
1	2559	1176	1
1	2564	1180	1
1	2572	1184	1
1	2582	1188	1
1	2593	1192	1
1	2603	1196	1
1	2608	1200	1
1	2616	1204	1
1	2626	1208	1
1	2636	1212	1
1	2647	1216	1
1	2652	1220	1
1	2660	1224	1
1	2669	1228	1
1	2678	1232	1
1	2688	1236	1
1	2693	1240	1
1	2704	1244	1
1	2714	1248	1
1	2724	1252	1
1	2733	1256	1
1	2738	1260	1
1	2747	1264	1
1	2759	1268	1
1	2768	1272	1
1	2777	1276	1
1	2782	1280	1
1	2790	1284	1
1	2800	1288	1
1	2810	1292	1
1	2819	1296	1
1	2824	1300	1
1	2832	1304	1
1	2841	1308	1
1	2851	1312	1
1	2862	1316	1
1	2867	1320	1
1	2877	1324	1
1	2887	1328	1
1	2897	1332	1
1	2908	1336	1
1	2913	1340	1
1	2924	1344	1
1	2933	1348	1
1	2942	1352	1
1	2952	1356	1
1	2957	1360	1
1	2966	1364	1
1	2976	1368	1
1	2987	1372	1
1	2997	1376	1
1	3002	1380	1
1	3011	1384	1
1	3022	1388	1
1	3033	1392	1
1	3043	1396	1
1	3048	1400	1
1	3058	1404	1
1	3067	1408	1
1	3076	1412	1
1	3085	1416	1
1	3090	1420	1
1	3098	1424	1
1	3108	1428	1
1	3120	1432	1
1	3129	1436	1
1	3134	1440	1
1	3142	1444	1
1	3152	1448	1
1	3163	1452	1
1	3173	1456	1
1	3178	1460	1
1	3186	1464	1
1	3196	1468	1
1	3207	1472	1
1	3217	1476	1
1	3222	1480	1
1	3230	1484	1
1	3240	1488	1
1	3253	1492	1
1	3262	1496	1
1	3267	1500	1
1	3275	1504	1
1	3284	1508	1
1	3293	1512	1
1	3302	1516	1
1	3307	1520	1
1	3317	1524	1
1	3326	1528	1
1	3337	1532	1
1	3346	1536	1
1	3351	1540	1
1	3359	1544	1
1	3368	1548	1
1	3377	1552	1
1	3386	1556	1
1	3391	1560	1
1	3400	1564	1
1	3410	1568	1
1	3419	1572	1
1	3429	1576	1
1	3434	1580	1
1	3444	1584	1
1	3456	1588	1
1	3465	1592	1
1	3475	1596	1
1	3480	1600	1
1	3490	1604	1
1	3500	1608	1
1	3510	1612	1
1	3522	1616	1
1	3527	1620	1
1	3535	1624	1
1	3544	1628	1
1	3553	1632	1
1	3564	1636	1
1	3569	1640	1
1	3577	1644	1
1	3586	1648	1
1	3595	1652	1
1	3606	1656	1
1	3611	1660	1
1	3619	1664	1
1	3628	1668	1
1	3637	1672	1
1	3646	1676	1
1	3651	1680	1
1	3659	1684	1
1	3668	1688	1
1	3678	1692	1
1	3689	1696	1
1	3694	1700	1
1	3704	1704	1
1	3716	1708	1
1	3725	1712	1
1	3734	1716	1
1	3739	1720	1
1	3748	1724	1
1	3759	1728	1
1	3771	1732	1
1	3780	1736	1
1	3785	1740	1
1	3793	1744	1
1	3803	1748	1
1	3813	1752	1
1	3822	1756	1
1	3827	1760	1
1	3836	1764	1
1	3847	1768	1
1	3857	1772	1
1	3866	1776	1
1	3871	1780	1
1	3882	1784	1
1	3892	1788	1
1	3902	1792	1
1	3911	1796	1
1	3916	1800	1
1	3924	1804	1
1	3933	1808	1
1	3943	1812	1
1	3953	1816	1
1	3958	1820	1
1	3967	1824	1
1	3978	1828	1
1	3990	1832	1
1	3999	1836	1
1	4004	1840	1
1	4012	1844	1
1	4021	1848	1
1	4030	1852	1
1	4040	1856	1
1	4045	1860	1
1	4055	1864	1
1	4066	1868	1
1	4077	1872	1
1	4089	1876	1
1	4094	1880	1
1	4102	1884	1
1	4112	1888	1
1	4122	1892	1
1	4132	1896	1
1	4137	1900	1
1	4146	1904	1
1	4156	1908	1
1	4166	1912	1
1	4176	1916	1
1	4181	1920	1
1	4191	1924	1
1	4201	1928	1
1	4210	1932	1
1	4221	1936	1
1	4226	1940	1
1	4235	1944	1
1	4246	1948	1
1	4256	1952	1
1	4266	1956	1
1	4271	1960	1
1	4280	1964	1
1	4289	1968	1
1	4299	1972	1
1	4309	1976	1
1	4314	1980	1
1	4322	1984	1
1	4333	1988	1
1	4342	1992	1
1	4351	1996	1
1	4356	2000	1
1	4364	2004	1
1	4375	2008	1
1	4384	2012	1
1	4393	2016	1
1	4398	2020	1
1	4406	2024	1
1	4416	2028	1
1	4426	2032	1
1	4435	2036	1
1	4440	2040	1
1	4450	2044	1
1	4460	2048	1
1	4470	2052	1
1	4479	2056	1
1	4484	2060	1
1	4492	2064	1
1	4501	2068	1
1	4510	2072	1
1	4519	2076	1
1	4524	2080	1
1	4532	2084	1
1	4542	2088	1
1	4555	2092	1
1	4564	2096	1
1	4569	2100	1
1	4577	2104	1
1	4587	2108	1
1	4597	2112	1
1	4608	2116	1
1	4613	2120	1
1	4621	2124	1
1	4630	2128	1
1	4639	2132	1
1	4648	2136	1
1	4653	2140	1
1	4661	2144	1
1	4671	2148	1
1	4682	2152	1
1	4692	2156	1
1	4697	2160	1
1	4705	2164	1
1	4714	2168	1
1	4723	2172	1
1	4732	2176	1
1	4737	2180	1
1	4745	2184	1
1	4755	2188	1
1	4765	2192	1
1	4775	2196	1
1	4780	2200	1
1	4790	2204	1
1	4801	2208	1
1	4812	2212	1
1	4824	2216	1
1	4829	2220	1
1	4837	2224	1
1	4847	2228	1
1	4857	2232	1
1	4867	2236	1
1	4872	2240	1
1	4882	2244	1
1	4892	2248	1
1	4901	2252	1
1	4911	2256	1
1	4916	2260	1
1	4926	2264	1
1	4936	2268	1
1	4947	2272	1
1	4956	2276	1
1	4961	2280	1
1	4969	2284	1
1	4978	2288	1
1	4987	2292	1
1	4996	2296	1
1	5001	2300	1
1	5011	2304	1
1	5020	2308	1
1	5029	2312	1
1	5039	2316	1
1	5044	2320	1
1	5053	2324	1
1	5062	2328	1
1	5071	2332	1
1	5081	2336	1
1	5086	2340	1
1	5097	2344	1
1	5107	2348	1
1	5118	2352	1
1	5128	2356	1
1	5133	2360	1
1	5141	2364	1
1	5150	2368	1
1	5160	2372	1
1	5170	2376	1
1	5175	2380	1
1	5183	2384	1
1	5195	2388	1
1	5204	2392	1
1	5213	2396	1
1	5218	2400	1
1	5226	2404	1
1	5235	2408	1
1	5244	2412	1
1	5254	2416	1
1	5259	2420	1
1	5269	2424	1
1	5280	2428	1
1	5291	2432	1
1	5303	2436	1
1	5308	2440	1
1	5316	2444	1
1	5326	2448	1
1	5336	2452	1
1	5345	2456	1
1	5350	2460	1
1	5359	2464	1
1	5369	2468	1
1	5378	2472	1
1	5387	2476	1
1	5392	2480	1
1	5401	2484	1
1	5411	2488	1
1	5421	2492	1
1	5432	2496	1
1	5437	2500	1
1	5447	2504	1
1	5459	2508	1
1	5468	2512	1
1	5479	2516	1
1	5484	2520	1
1	5492	2524	1
1	5501	2528	1
1	5510	2532	1
1	5520	2536	1
1	5525	2540	1
1	5534	2544	1
1	5543	2548	1
1	5553	2552	1
1	5563	2556	1
1	5568	2560	1
1	5576	2564	1
1	5587	2568	1
1	5597	2572	1
1	5607	2576	1
1	5612	2580	1
1	5620	2584	1
1	5629	2588	1
1	5639	2592	1
1	5649	2596	1
1	5654	2600	1
1	5664	2604	1
1	5673	2608	1
1	5682	2612	1
1	5691	2616	1
1	5696	2620	1
1	5704	2624	1
1	5713	2628	1
1	5724	2632	1
1	5734	2636	1
1	5739	2640	1
1	5748	2644	1
1	5758	2648	1
1	5768	2652	1
1	5777	2656	1
1	5782	2660	1
1	5790	2664	1
1	5799	2668	1
1	5809	2672	1
1	5820	2676	1
1	5825	2680	1
1	5835	2684	1
1	5846	2688	1
1	5857	2692	1
1	5867	2696	1
1	5872	2700	1
1	5881	2704	1
1	5892	2708	1
1	5904	2712	1
1	5915	2716	1
1	5920	2720	1
1	5928	2724	1
1	5937	2728	1
1	5946	2732	1
1	5956	2736	1
1	5961	2740	1
1	5971	2744	1
1	5983	2748	1
1	5992	2752	1
1	6001	2756	1
1	6006	2760	1
1	6015	2764	1
1	6026	2768	1
1	6038	2772	1
1	6048	2776	1
1	6053	2780	1
1	6062	2784	1
1	6071	2788	1
1	6080	2792	1
1	6090	2796	1
1	6095	2800	1
1	6104	2804	1
1	6114	2808	1
1	6124	2812	1
1	6133	2816	1
1	6138	2820	1
1	6146	2824	1
1	6155	2828	1
1	6164	2832	1
1	6173	2836	1
1	6178	2840	1
1	6187	2844	1
1	6198	2848	1
1	6208	2852	1
1	6219	2856	1
1	6224	2860	1
1	6232	2864	1
1	6241	2868	1
1	6250	2872	1
1	6260	2876	1
1	6265	2880	1
1	6275	2884	1
1	6286	2888	1
1	6296	2892	1
1	6306	2896	1
1	6311	2900	1
1	6320	2904	1
1	6329	2908	1
1	6338	2912	1
1	6348	2916	1
1	6353	2920	1
1	6363	2924	1
1	6374	2928	1
1	6384	2932	1
1	6393	2936	1
1	6398	2940	1
1	6406	2944	1
1	6417	2948	1
1	6427	2952	1
1	6437	2956	1
1	6442	2960	1
1	6451	2964	1
1	6462	2968	1
1	6472	2972	1
1	6481	2976	1
1	6486	2980	1
1	6495	2984	1
1	6506	2988	1
1	6517	2992	1
1	6528	2996	1
1	6533	3000	1
1	6542	3004	1
1	6551	3008	1
1	6561	3012	1
1	6572	3016	1
1	6577	3020	1
1	6587	3024	1
1	6598	3028	1
1	6609	3032	1
1	6620	3036	1
1	6625	3040	1
1	6635	3044	1
1	6646	3048	1
1	6657	3052	1
1	6668	3056	1
1	6673	3060	1
1	6682	3064	1
1	6694	3068	1
1	6703	3072	1
1	6712	3076	1
1	6717	3080	1
1	6726	3084	1
1	6737	3088	1
1	6748	3092	1
1	6760	3096	1
1	6765	3100	1
1	6773	3104	1
1	6782	3108	1
1	6791	3112	1
1	6801	3116	1
1	6806	3120	1
1	6815	3124	1
1	6824	3128	1
1	6833	3132	1
1	6842	3136	1
1	6847	3140	1
1	6857	3144	1
1	6867	3148	1
1	6878	3152	1
1	6888	3156	1
1	6893	3160	1
1	6901	3164	1
1	6911	3168	1
1	6921	3172	1
1	6930	3176	1
1	6935	3180	1
1	6944	3184	1
1	6954	3188	1
1	6963	3192	1
1	6974	3196	1
1	6979	3200	1
1	6987	3204	1
1	6996	3208	1
1	7005	3212	1
1	7014	3216	1
1	7019	3220	1
1	7028	3224	1
1	7039	3228	1
1	7049	3232	1
1	7059	3236	1
1	7064	3240	1
1	7074	3244	1
1	7085	3248	1
1	7096	3252	1
1	7107	3256	1
1	7112	3260	1
1	7122	3264	1
1	7134	3268	1
1	7143	3272	1
1	7153	3276	1
1	7158	3280	1
1	7167	3284	1
1	7178	3288	1
1	7187	3292	1
1	7196	3296	1
1	7201	3300	1
1	7210	3304	1
1	7221	3308	1
1	7233	3312	1
1	7243	3316	1
1	7248	3320	1
1	7257	3324	1
1	7267	3328	1
1	7277	3332	1
1	7286	3336	1
1	7291	3340	1
1	7300	3344	1
1	7312	3348	1
1	7321	3352	1
1	7330	3356	1
1	7335	3360	1
1	7345	3364	1
1	7354	3368	1
1	7363	3372	1
1	7372	3376	1
1	7377	3380	1
1	7385	3384	1
1	7394	3388	1
1	7404	3392	1
1	7416	3396	1
1	7421	3400	1
1	7429	3404	1
1	7439	3408	1
1	7450	3412	1
1	7460	3416	1
1	7465	3420	1
1	7474	3424	1
1	7484	3428	1
1	7493	3432	1
1	7503	3436	1
1	7508	3440	1
1	7518	3444	1
1	7528	3448	1
1	7537	3452	1
1	7546	3456	1
1	7551	3460	1
1	7560	3464	1
1	7572	3468	1
1	7581	3472	1
1	7590	3476	1
1	7595	3480	1
1	7604	3484	1
1	7614	3488	1
1	7624	3492	1
1	7634	3496	1
1	7639	3500	1
1	7648	3504	1
1	7658	3508	1
1	7669	3512	1
1	7678	3516	1
1	7683	3520	1
1	7691	3524	1
1	7701	3528	1
1	7712	3532	1
1	7722	3536	1
1	7727	3540	1
1	7735	3544	1
1	7745	3548	1
1	7756	3552	1
1	7766	3556	1
1	7771	3560	1
1	7779	3564	1
1	7788	3568	1
1	7797	3572	1
1	7807	3576	1
1	7812	3580	1
1	7822	3584	1
1	7832	3588	1
1	7842	3592	1
1	7854	3596	1
1	7859	3600	1
2	3	4	1
2	13	8	1
2	23	12	1
2	32	16	1
2	37	20	1
2	47	24	1
2	56	28	1
2	65	32	1
2	74	36	1
2	79	40	1
2	89	44	1
2	98	48	1
2	108	52	1
2	118	56	1
2	123	60	1
2	131	64	1
2	141	68	1
2	151	72	1
2	160	76	1
2	165	80	1
2	175	84	1
2	184	88	1
2	195	92	1
2	204	96	1
2	209	100	1
2	217	104	1
2	226	108	1
2	236	112	1
2	246	116	1
2	251	120	1
2	261	124	1
2	270	128	1
2	279	132	1
2	288	136	1
2	293	140	1
2	302	144	1
2	312	148	1
2	321	152	1
2	330	156	1
2	335	160	1
2	345	164	1
2	356	168	1
2	365	172	1
2	374	176	1
2	379	180	1
2	387	184	1
2	396	188	1
2	406	192	1
2	416	196	1
2	421	200	1
2	429	204	1
2	439	208	1
2	449	212	1
2	459	216	1
2	464	220	1
2	474	224	1
2	484	228	1
2	494	232	1
2	505	236	1
2	510	240	1
2	521	244	1
2	530	248	1
2	540	252	1
2	550	256	1
2	555	260	1
2	563	264	1
2	572	268	1
2	583	272	1
2	593	276	1
2	598	280	1
2	607	284	1
2	617	288	1
2	628	292	1
2	638	296	1
2	643	300	1
2	651	304	1
2	660	308	1
2	669	312	1
2	680	316	1
2	685	320	1
2	693	324	1
2	702	328	1
2	711	332	1
2	721	336	1
2	726	340	1
2	735	344	1
2	744	348	1
2	753	352	1
2	763	356	1
2	768	360	1
2	777	364	1
2	787	368	1
2	799	372	1
2	808	376	1
2	813	380	1
2	821	384	1
2	830	388	1
2	840	392	1
2	850	396	1
2	855	400	1
2	864	404	1
2	874	408	1
2	884	412	1
2	895	416	1
2	900	420	1
2	909	424	1
2	919	428	1
2	929	432	1
2	939	436	1
2	944	440	1
2	954	444	1
2	965	448	1
2	977	452	1
2	986	456	1
2	991	460	1
2	1000	464	1
2	1011	468	1
2	1021	472	1
2	1031	476	1
2	1036	480	1
2	1045	484	1
2	1055	488	1
2	1065	492	1
2	1076	496	1
2	1081	500	1
2	1089	504	1
2	1098	508	1
2	1108	512	1
2	1118	516	1
2	1123	520	1
2	1134	524	1
2	1143	528	1
2	1152	532	1
2	1161	536	1
2	1166	540	1
2	1174	544	1
2	1183	548	1
2	1192	552	1
2	1201	556	1
2	1206	560	1
2	1216	564	1
2	1225	568	1
2	1235	572	1
2	1245	576	1
2	1250	580	1
2	1259	584	1
2	1271	588	1
2	1280	592	1
2	1289	596	1
2	1294	600	1
2	1302	604	1
2	1312	608	1
2	1323	612	1
2	1334	616	1
2	1339	620	1
2	1349	624	1
2	1359	628	1
2	1368	632	1
2	1378	636	1
2	1383	640	1
2	1395	644	1
2	1404	648	1
2	1414	652	1
2	1424	656	1
2	1429	660	1
2	1438	664	1
2	1448	668	1
2	1457	672	1
2	1467	676	1
2	1472	680	1
2	1482	684	1
2	1493	688	1
2	1505	692	1
2	1514	696	1
2	1519	700	1
2	1527	704	1
2	1537	708	1
2	1548	712	1
2	1559	716	1
2	1564	720	1
2	1574	724	1
2	1584	728	1
2	1593	732	1
2	1603	736	1
2	1608	740	1
2	1618	744	1
2	1629	748	1
2	1641	752	1
2	1651	756	1
2	1656	760	1
2	1665	764	1
2	1676	768	1
2	1685	772	1
2	1694	776	1
2	1699	780	1
2	1707	784	1
2	1716	788	1
2	1725	792	1
2	1734	796	1
2	1739	800	1
2	1747	804	1
2	1756	808	1
2	1765	812	1
2	1775	816	1
2	1780	820	1
2	1789	824	1
2	1799	828	1
2	1809	832	1
2	1818	836	1
2	1823	840	1
2	1831	844	1
2	1843	848	1
2	1852	852	1
2	1861	856	1
2	1866	860	1
2	1874	864	1
2	1883	868	1
2	1892	872	1
2	1902	876	1
2	1907	880	1
2	1916	884	1
2	1926	888	1
2	1937	892	1
2	1947	896	1
2	1952	900	1
2	1962	904	1
2	1972	908	1
2	1982	912	1
2	1992	916	1
2	1997	920	1
2	2006	924	1
2	2015	928	1
2	2024	932	1
2	2034	936	1
2	2039	940	1
2	2050	944	1
2	2059	948	1
2	2068	952	1
2	2078	956	1
2	2083	960	1
2	2092	964	1
2	2101	968	1
2	2112	972	1
2	2121	976	1
2	2126	980	1
2	2134	984	1
2	2143	988	1
2	2153	992	1
2	2163	996	1
2	2168	1000	1
2	2176	1004	1
2	2185	1008	1
2	2194	1012	1
2	2204	1016	1
2	2209	1020	1
2	2219	1024	1
2	2229	1028	1
2	2239	1032	1
2	2250	1036	1
2	2255	1040	1
2	2265	1044	1
2	2276	1048	1
2	2287	1052	1
2	2297	1056	1
2	2302	1060	1
2	2311	1064	1
2	2322	1068	1
2	2332	1072	1
2	2342	1076	1
2	2347	1080	1
2	2358	1084	1
2	2367	1088	1
2	2376	1092	1
2	2386	1096	1
2	2391	1100	1
2	2400	1104	1
2	2410	1108	1
2	2420	1112	1
2	2429	1116	1
2	2434	1120	1
2	2442	1124	1
2	2452	1128	1
2	2463	1132	1
2	2473	1136	1
2	2478	1140	1
2	2486	1144	1
2	2496	1148	1
2	2507	1152	1
2	2517	1156	1
2	2522	1160	1
2	2530	1164	1
2	2542	1168	1
2	2551	1172	1
2	2560	1176	1
2	2565	1180	1
2	2573	1184	1
2	2583	1188	1
2	2594	1192	1
2	2604	1196	1
2	2609	1200	1
2	2617	1204	1
2	2627	1208	1
2	2637	1212	1
2	2648	1216	1
2	2653	1220	1
2	2661	1224	1
2	2670	1228	1
2	2679	1232	1
2	2689	1236	1
2	2694	1240	1
2	2705	1244	1
2	2715	1248	1
2	2725	1252	1
2	2734	1256	1
2	2739	1260	1
2	2748	1264	1
2	2760	1268	1
2	2769	1272	1
2	2778	1276	1
2	2783	1280	1
2	2791	1284	1
2	2801	1288	1
2	2811	1292	1
2	2820	1296	1
2	2825	1300	1
2	2833	1304	1
2	2842	1308	1
2	2852	1312	1
2	2863	1316	1
2	2868	1320	1
2	2878	1324	1
2	2888	1328	1
2	2898	1332	1
2	2909	1336	1
2	2914	1340	1
2	2925	1344	1
2	2934	1348	1
2	2943	1352	1
2	2953	1356	1
2	2958	1360	1
2	2967	1364	1
2	2977	1368	1
2	2988	1372	1
2	2998	1376	1
2	3003	1380	1
2	3012	1384	1
2	3023	1388	1
2	3034	1392	1
2	3044	1396	1
2	3049	1400	1
2	3059	1404	1
2	3068	1408	1
2	3077	1412	1
2	3086	1416	1
2	3091	1420	1
2	3099	1424	1
2	3109	1428	1
2	3121	1432	1
2	3130	1436	1
2	3135	1440	1
2	3143	1444	1
2	3153	1448	1
2	3164	1452	1
2	3174	1456	1
2	3179	1460	1
2	3187	1464	1
2	3197	1468	1
2	3208	1472	1
2	3218	1476	1
2	3223	1480	1
2	3231	1484	1
2	3241	1488	1
2	3254	1492	1
2	3263	1496	1
2	3268	1500	1
2	3276	1504	1
2	3285	1508	1
2	3294	1512	1
2	3303	1516	1
2	3308	1520	1
2	3318	1524	1
2	3327	1528	1
2	3338	1532	1
2	3347	1536	1
2	3352	1540	1
2	3360	1544	1
2	3369	1548	1
2	3378	1552	1
2	3387	1556	1
2	3392	1560	1
2	3401	1564	1
2	3411	1568	1
2	3420	1572	1
2	3430	1576	1
2	3435	1580	1
2	3445	1584	1
2	3457	1588	1
2	3466	1592	1
2	3476	1596	1
2	3481	1600	1
2	3491	1604	1
2	3501	1608	1
2	3511	1612	1
2	3523	1616	1
2	3528	1620	1
2	3536	1624	1
2	3545	1628	1
2	3554	1632	1
2	3565	1636	1
2	3570	1640	1
2	3578	1644	1
2	3587	1648	1
2	3596	1652	1
2	3607	1656	1
2	3612	1660	1
2	3620	1664	1
2	3629	1668	1
2	3638	1672	1
2	3647	1676	1
2	3652	1680	1
2	3660	1684	1
2	3669	1688	1
2	3679	1692	1
2	3690	1696	1
2	3695	1700	1
2	3705	1704	1
2	3717	1708	1
2	3726	1712	1
2	3735	1716	1
2	3740	1720	1
2	3749	1724	1
2	3760	1728	1
2	3772	1732	1
2	3781	1736	1
2	3786	1740	1
2	3794	1744	1
2	3804	1748	1
2	3814	1752	1
2	3823	1756	1
2	3828	1760	1
2	3837	1764	1
2	3848	1768	1
2	3858	1772	1
2	3867	1776	1
2	3872	1780	1
2	3883	1784	1
2	3893	1788	1
2	3903	1792	1
2	3912	1796	1
2	3917	1800	1
2	3925	1804	1
2	3934	1808	1
2	3944	1812	1
2	3954	1816	1
2	3959	1820	1
2	3968	1824	1
2	3979	1828	1
2	3991	1832	1
2	4000	1836	1
2	4005	1840	1
2	4013	1844	1
2	4022	1848	1
2	4031	1852	1
2	4041	1856	1
2	4046	1860	1
2	4056	1864	1
2	4067	1868	1
2	4078	1872	1
2	4090	1876	1
2	4095	1880	1
2	4103	1884	1
2	4113	1888	1
2	4123	1892	1
2	4133	1896	1
2	4138	1900	1
2	4147	1904	1
2	4157	1908	1
2	4167	1912	1
2	4177	1916	1
2	4182	1920	1
2	4192	1924	1
2	4202	1928	1
2	4211	1932	1
2	4222	1936	1
2	4227	1940	1
2	4236	1944	1
2	4247	1948	1
2	4257	1952	1
2	4267	1956	1
2	4272	1960	1
2	4281	1964	1
2	4290	1968	1
2	4300	1972	1
2	4310	1976	1
2	4315	1980	1
2	4323	1984	1
2	4334	1988	1
2	4343	1992	1
2	4352	1996	1
2	4357	2000	1
2	4365	2004	1
2	4376	2008	1
2	4385	2012	1
2	4394	2016	1
2	4399	2020	1
2	4407	2024	1
2	4417	2028	1
2	4427	2032	1
2	4436	2036	1
2	4441	2040	1
2	4451	2044	1
2	4461	2048	1
2	4471	2052	1
2	4480	2056	1
2	4485	2060	1
2	4493	2064	1
2	4502	2068	1
2	4511	2072	1
2	4520	2076	1
2	4525	2080	1
2	4533	2084	1
2	4543	2088	1
2	4556	2092	1
2	4565	2096	1
2	4570	2100	1
2	4578	2104	1
2	4588	2108	1
2	4598	2112	1
2	4609	2116	1
2	4614	2120	1
2	4622	2124	1
2	4631	2128	1
2	4640	2132	1
2	4649	2136	1
2	4654	2140	1
2	4662	2144	1
2	4672	2148	1
2	4683	2152	1
2	4693	2156	1
2	4698	2160	1
2	4706	2164	1
2	4715	2168	1
2	4724	2172	1
2	4733	2176	1
2	4738	2180	1
2	4746	2184	1
2	4756	2188	1
2	4766	2192	1
2	4776	2196	1
2	4781	2200	1
2	4791	2204	1
2	4802	2208	1
2	4813	2212	1
2	4825	2216	1
2	4830	2220	1
2	4838	2224	1
2	4848	2228	1
2	4858	2232	1
2	4868	2236	1
2	4873	2240	1
2	4883	2244	1
2	4893	2248	1
2	4902	2252	1
2	4912	2256	1
2	4917	2260	1
2	4927	2264	1
2	4937	2268	1
2	4948	2272	1
2	4957	2276	1
2	4962	2280	1
2	4970	2284	1
2	4979	2288	1
2	4988	2292	1
2	4997	2296	1
2	5002	2300	1
2	5012	2304	1
2	5021	2308	1
2	5030	2312	1
2	5040	2316	1
2	5045	2320	1
2	5054	2324	1
2	5063	2328	1
2	5072	2332	1
2	5082	2336	1
2	5087	2340	1
2	5098	2344	1
2	5108	2348	1
2	5119	2352	1
2	5129	2356	1
2	5134	2360	1
2	5142	2364	1
2	5151	2368	1
2	5161	2372	1
2	5171	2376	1
2	5176	2380	1
2	5184	2384	1
2	5196	2388	1
2	5205	2392	1
2	5214	2396	1
2	5219	2400	1
2	5227	2404	1
2	5236	2408	1
2	5245	2412	1
2	5255	2416	1
2	5260	2420	1
2	5270	2424	1
2	5281	2428	1
2	5292	2432	1
2	5304	2436	1
2	5309	2440	1
2	5317	2444	1
2	5327	2448	1
2	5337	2452	1
2	5346	2456	1
2	5351	2460	1
2	5360	2464	1
2	5370	2468	1
2	5379	2472	1
2	5388	2476	1
2	5393	2480	1
2	5402	2484	1
2	5412	2488	1
2	5422	2492	1
2	5433	2496	1
2	5438	2500	1
2	5448	2504	1
2	5460	2508	1
2	5469	2512	1
2	5480	2516	1
2	5485	2520	1
2	5493	2524	1
2	5502	2528	1
2	5511	2532	1
2	5521	2536	1
2	5526	2540	1
2	5535	2544	1
2	5544	2548	1
2	5554	2552	1
2	5564	2556	1
2	5569	2560	1
2	5577	2564	1
2	5588	2568	1
2	5598	2572	1
2	5608	2576	1
2	5613	2580	1
2	5621	2584	1
2	5630	2588	1
2	5640	2592	1
2	5650	2596	1
2	5655	2600	1
2	5665	2604	1
2	5674	2608	1
2	5683	2612	1
2	5692	2616	1
2	5697	2620	1
2	5705	2624	1
2	5714	2628	1
2	5725	2632	1
2	5735	2636	1
2	5740	2640	1
2	5749	2644	1
2	5759	2648	1
2	5769	2652	1
2	5778	2656	1
2	5783	2660	1
2	5791	2664	1
2	5800	2668	1
2	5810	2672	1
2	5821	2676	1
2	5826	2680	1
2	5836	2684	1
2	5847	2688	1
2	5858	2692	1
2	5868	2696	1
2	5873	2700	1
2	5882	2704	1
2	5893	2708	1
2	5905	2712	1
2	5916	2716	1
2	5921	2720	1
2	5929	2724	1
2	5938	2728	1
2	5947	2732	1
2	5957	2736	1
2	5962	2740	1
2	5972	2744	1
2	5984	2748	1
2	5993	2752	1
2	6002	2756	1
2	6007	2760	1
2	6016	2764	1
2	6027	2768	1
2	6039	2772	1
2	6049	2776	1
2	6054	2780	1
2	6063	2784	1
2	6072	2788	1
2	6081	2792	1
2	6091	2796	1
2	6096	2800	1
2	6105	2804	1
2	6115	2808	1
2	6125	2812	1
2	6134	2816	1
2	6139	2820	1
2	6147	2824	1
2	6156	2828	1
2	6165	2832	1
2	6174	2836	1
2	6179	2840	1
2	6188	2844	1
2	6199	2848	1
2	6209	2852	1
2	6220	2856	1
2	6225	2860	1
2	6233	2864	1
2	6242	2868	1
2	6251	2872	1
2	6261	2876	1
2	6266	2880	1
2	6276	2884	1
2	6287	2888	1
2	6297	2892	1
2	6307	2896	1
2	6312	2900	1
2	6321	2904	1
2	6330	2908	1
2	6339	2912	1
2	6349	2916	1
2	6354	2920	1
2	6364	2924	1
2	6375	2928	1
2	6385	2932	1
2	6394	2936	1
2	6399	2940	1
2	6407	2944	1
2	6418	2948	1
2	6428	2952	1
2	6438	2956	1
2	6443	2960	1
2	6452	2964	1
2	6463	2968	1
2	6473	2972	1
2	6482	2976	1
2	6487	2980	1
2	6496	2984	1
2	6507	2988	1
2	6518	2992	1
2	6529	2996	1
2	6534	3000	1
2	6543	3004	1
2	6552	3008	1
2	6562	3012	1
2	6573	3016	1
2	6578	3020	1
2	6588	3024	1
2	6599	3028	1
2	6610	3032	1
2	6621	3036	1
2	6626	3040	1
2	6636	3044	1
2	6647	3048	1
2	6658	3052	1
2	6669	3056	1
2	6674	3060	1
2	6683	3064	1
2	6695	3068	1
2	6704	3072	1
2	6713	3076	1
2	6718	3080	1
2	6727	3084	1
2	6738	3088	1
2	6749	3092	1
2	6761	3096	1
2	6766	3100	1
2	6774	3104	1
2	6783	3108	1
2	6792	3112	1
2	6802	3116	1
2	6807	3120	1
2	6816	3124	1
2	6825	3128	1
2	6834	3132	1
2	6843	3136	1
2	6848	3140	1
2	6858	3144	1
2	6868	3148	1
2	6879	3152	1
2	6889	3156	1
2	6894	3160	1
2	6902	3164	1
2	6912	3168	1
2	6922	3172	1
2	6931	3176	1
2	6936	3180	1
2	6945	3184	1
2	6955	3188	1
2	6964	3192	1
2	6975	3196	1
2	6980	3200	1
2	6988	3204	1
2	6997	3208	1
2	7006	3212	1
2	7015	3216	1
2	7020	3220	1
2	7029	3224	1
2	7040	3228	1
2	7050	3232	1
2	7060	3236	1
2	7065	3240	1
2	7075	3244	1
2	7086	3248	1
2	7097	3252	1
2	7108	3256	1
2	7113	3260	1
2	7123	3264	1
2	7135	3268	1
2	7144	3272	1
2	7154	3276	1
2	7159	3280	1
2	7168	3284	1
2	7179	3288	1
2	7188	3292	1
2	7197	3296	1
2	7202	3300	1
2	7211	3304	1
2	7222	3308	1
2	7234	3312	1
2	7244	3316	1
2	7249	3320	1
2	7258	3324	1
2	7268	3328	1
2	7278	3332	1
2	7287	3336	1
2	7292	3340	1
2	7301	3344	1
2	7313	3348	1
2	7322	3352	1
2	7331	3356	1
2	7336	3360	1
2	7346	3364	1
2	7355	3368	1
2	7364	3372	1
2	7373	3376	1
2	7378	3380	1
2	7386	3384	1
2	7395	3388	1
2	7405	3392	1
2	7417	3396	1
2	7422	3400	1
2	7430	3404	1
2	7440	3408	1
2	7451	3412	1
2	7461	3416	1
2	7466	3420	1
2	7475	3424	1
2	7485	3428	1
2	7494	3432	1
2	7504	3436	1
2	7509	3440	1
2	7519	3444	1
2	7529	3448	1
2	7538	3452	1
2	7547	3456	1
2	7552	3460	1
2	7561	3464	1
2	7573	3468	1
2	7582	3472	1
2	7591	3476	1
2	7596	3480	1
2	7605	3484	1
2	7615	3488	1
2	7625	3492	1
2	7635	3496	1
2	7640	3500	1
2	7649	3504	1
2	7659	3508	1
2	7670	3512	1
2	7679	3516	1
2	7684	3520	1
2	7692	3524	1
2	7702	3528	1
2	7713	3532	1
2	7723	3536	1
2	7728	3540	1
2	7736	3544	1
2	7746	3548	1
2	7757	3552	1
2	7767	3556	1
2	7772	3560	1
2	7780	3564	1
2	7789	3568	1
2	7798	3572	1
2	7808	3576	1
2	7813	3580	1
2	7823	3584	1
2	7833	3588	1
2	7843	3592	1
2	7855	3596	1
2	7860	3600	1
3	4	4	1
3	14	8	1
3	24	12	1
3	33	16	1
3	38	20	1
3	48	24	1
3	57	28	1
3	66	32	1
3	75	36	1
3	80	40	1
3	90	44	1
3	99	48	1
3	109	52	1
3	119	56	1
3	124	60	1
3	132	64	1
3	142	68	1
3	152	72	1
3	161	76	1
3	166	80	1
3	176	84	1
3	185	88	1
3	196	92	1
3	205	96	1
3	210	100	1
3	218	104	1
3	227	108	1
3	237	112	1
3	247	116	1
3	252	120	1
3	262	124	1
3	271	128	1
3	280	132	1
3	289	136	1
3	294	140	1
3	303	144	1
3	313	148	1
3	322	152	1
3	331	156	1
3	336	160	1
3	346	164	1
3	357	168	1
3	366	172	1
3	375	176	1
3	380	180	1
3	388	184	1
3	397	188	1
3	407	192	1
3	417	196	1
3	422	200	1
3	430	204	1
3	440	208	1
3	450	212	1
3	460	216	1
3	465	220	1
3	475	224	1
3	485	228	1
3	495	232	1
3	506	236	1
3	511	240	1
3	522	244	1
3	531	248	1
3	541	252	1
3	551	256	1
3	556	260	1
3	564	264	1
3	573	268	1
3	584	272	1
3	594	276	1
3	599	280	1
3	608	284	1
3	618	288	1
3	629	292	1
3	639	296	1
3	644	300	1
3	652	304	1
3	661	308	1
3	670	312	1
3	681	316	1
3	686	320	1
3	694	324	1
3	703	328	1
3	712	332	1
3	722	336	1
3	727	340	1
3	736	344	1
3	745	348	1
3	754	352	1
3	764	356	1
3	769	360	1
3	778	364	1
3	788	368	1
3	800	372	1
3	809	376	1
3	814	380	1
3	822	384	1
3	831	388	1
3	841	392	1
3	851	396	1
3	856	400	1
3	865	404	1
3	875	408	1
3	885	412	1
3	896	416	1
3	901	420	1
3	910	424	1
3	920	428	1
3	930	432	1
3	940	436	1
3	945	440	1
3	955	444	1
3	966	448	1
3	978	452	1
3	987	456	1
3	992	460	1
3	1001	464	1
3	1012	468	1
3	1022	472	1
3	1032	476	1
3	1037	480	1
3	1046	484	1
3	1056	488	1
3	1066	492	1
3	1077	496	1
3	1082	500	1
3	1090	504	1
3	1099	508	1
3	1109	512	1
3	1119	516	1
3	1124	520	1
3	1135	524	1
3	1144	528	1
3	1153	532	1
3	1162	536	1
3	1167	540	1
3	1175	544	1
3	1184	548	1
3	1193	552	1
3	1202	556	1
3	1207	560	1
3	1217	564	1
3	1226	568	1
3	1236	572	1
3	1246	576	1
3	1251	580	1
3	1260	584	1
3	1272	588	1
3	1281	592	1
3	1290	596	1
3	1295	600	1
3	1303	604	1
3	1313	608	1
3	1324	612	1
3	1335	616	1
3	1340	620	1
3	1350	624	1
3	1360	628	1
3	1369	632	1
3	1379	636	1
3	1384	640	1
3	1396	644	1
3	1405	648	1
3	1415	652	1
3	1425	656	1
3	1430	660	1
3	1439	664	1
3	1449	668	1
3	1458	672	1
3	1468	676	1
3	1473	680	1
3	1483	684	1
3	1494	688	1
3	1506	692	1
3	1515	696	1
3	1520	700	1
3	1528	704	1
3	1538	708	1
3	1549	712	1
3	1560	716	1
3	1565	720	1
3	1575	724	1
3	1585	728	1
3	1594	732	1
3	1604	736	1
3	1609	740	1
3	1619	744	1
3	1630	748	1
3	1642	752	1
3	1652	756	1
3	1657	760	1
3	1666	764	1
3	1677	768	1
3	1686	772	1
3	1695	776	1
3	1700	780	1
3	1708	784	1
3	1717	788	1
3	1726	792	1
3	1735	796	1
3	1740	800	1
3	1748	804	1
3	1757	808	1
3	1766	812	1
3	1776	816	1
3	1781	820	1
3	1790	824	1
3	1800	828	1
3	1810	832	1
3	1819	836	1
3	1824	840	1
3	1832	844	1
3	1844	848	1
3	1853	852	1
3	1862	856	1
3	1867	860	1
3	1875	864	1
3	1884	868	1
3	1893	872	1
3	1903	876	1
3	1908	880	1
3	1917	884	1
3	1927	888	1
3	1938	892	1
3	1948	896	1
3	1953	900	1
3	1963	904	1
3	1973	908	1
3	1983	912	1
3	1993	916	1
3	1998	920	1
3	2007	924	1
3	2016	928	1
3	2025	932	1
3	2035	936	1
3	2040	940	1
3	2051	944	1
3	2060	948	1
3	2069	952	1
3	2079	956	1
3	2084	960	1
3	2093	964	1
3	2102	968	1
3	2113	972	1
3	2122	976	1
3	2127	980	1
3	2135	984	1
3	2144	988	1
3	2154	992	1
3	2164	996	1
3	2169	1000	1
3	2177	1004	1
3	2186	1008	1
3	2195	1012	1
3	2205	1016	1
3	2210	1020	1
3	2220	1024	1
3	2230	1028	1
3	2240	1032	1
3	2251	1036	1
3	2256	1040	1
3	2266	1044	1
3	2277	1048	1
3	2288	1052	1
3	2298	1056	1
3	2303	1060	1
3	2312	1064	1
3	2323	1068	1
3	2333	1072	1
3	2343	1076	1
3	2348	1080	1
3	2359	1084	1
3	2368	1088	1
3	2377	1092	1
3	2387	1096	1
3	2392	1100	1
3	2401	1104	1
3	2411	1108	1
3	2421	1112	1
3	2430	1116	1
3	2435	1120	1
3	2443	1124	1
3	2453	1128	1
3	2464	1132	1
3	2474	1136	1
3	2479	1140	1
3	2487	1144	1
3	2497	1148	1
3	2508	1152	1
3	2518	1156	1
3	2523	1160	1
3	2531	1164	1
3	2543	1168	1
3	2552	1172	1
3	2561	1176	1
3	2566	1180	1
3	2574	1184	1
3	2584	1188	1
3	2595	1192	1
3	2605	1196	1
3	2610	1200	1
3	2618	1204	1
3	2628	1208	1
3	2638	1212	1
3	2649	1216	1
3	2654	1220	1
3	2662	1224	1
3	2671	1228	1
3	2680	1232	1
3	2690	1236	1
3	2695	1240	1
3	2706	1244	1
3	2716	1248	1
3	2726	1252	1
3	2735	1256	1
3	2740	1260	1
3	2749	1264	1
3	2761	1268	1
3	2770	1272	1
3	2779	1276	1
3	2784	1280	1
3	2792	1284	1
3	2802	1288	1
3	2812	1292	1
3	2821	1296	1
3	2826	1300	1
3	2834	1304	1
3	2843	1308	1
3	2853	1312	1
3	2864	1316	1
3	2869	1320	1
3	2879	1324	1
3	2889	1328	1
3	2899	1332	1
3	2910	1336	1
3	2915	1340	1
3	2926	1344	1
3	2935	1348	1
3	2944	1352	1
3	2954	1356	1
3	2959	1360	1
3	2968	1364	1
3	2978	1368	1
3	2989	1372	1
3	2999	1376	1
3	3004	1380	1
3	3013	1384	1
3	3024	1388	1
3	3035	1392	1
3	3045	1396	1
3	3050	1400	1
3	3060	1404	1
3	3069	1408	1
3	3078	1412	1
3	3087	1416	1
3	3092	1420	1
3	3100	1424	1
3	3110	1428	1
3	3122	1432	1
3	3131	1436	1
3	3136	1440	1
3	3144	1444	1
3	3154	1448	1
3	3165	1452	1
3	3175	1456	1
3	3180	1460	1
3	3188	1464	1
3	3198	1468	1
3	3209	1472	1
3	3219	1476	1
3	3224	1480	1
3	3232	1484	1
3	3242	1488	1
3	3255	1492	1
3	3264	1496	1
3	3269	1500	1
3	3277	1504	1
3	3286	1508	1
3	3295	1512	1
3	3304	1516	1
3	3309	1520	1
3	3319	1524	1
3	3328	1528	1
3	3339	1532	1
3	3348	1536	1
3	3353	1540	1
3	3361	1544	1
3	3370	1548	1
3	3379	1552	1
3	3388	1556	1
3	3393	1560	1
3	3402	1564	1
3	3412	1568	1
3	3421	1572	1
3	3431	1576	1
3	3436	1580	1
3	3446	1584	1
3	3458	1588	1
3	3467	1592	1
3	3477	1596	1
3	3482	1600	1
3	3492	1604	1
3	3502	1608	1
3	3512	1612	1
3	3524	1616	1
3	3529	1620	1
3	3537	1624	1
3	3546	1628	1
3	3555	1632	1
3	3566	1636	1
3	3571	1640	1
3	3579	1644	1
3	3588	1648	1
3	3597	1652	1
3	3608	1656	1
3	3613	1660	1
3	3621	1664	1
3	3630	1668	1
3	3639	1672	1
3	3648	1676	1
3	3653	1680	1
3	3661	1684	1
3	3670	1688	1
3	3680	1692	1
3	3691	1696	1
3	3696	1700	1
3	3706	1704	1
3	3718	1708	1
3	3727	1712	1
3	3736	1716	1
3	3741	1720	1
3	3750	1724	1
3	3761	1728	1
3	3773	1732	1
3	3782	1736	1
3	3787	1740	1
3	3795	1744	1
3	3805	1748	1
3	3815	1752	1
3	3824	1756	1
3	3829	1760	1
3	3838	1764	1
3	3849	1768	1
3	3859	1772	1
3	3868	1776	1
3	3873	1780	1
3	3884	1784	1
3	3894	1788	1
3	3904	1792	1
3	3913	1796	1
3	3918	1800	1
3	3926	1804	1
3	3935	1808	1
3	3945	1812	1
3	3955	1816	1
3	3960	1820	1
3	3969	1824	1
3	3980	1828	1
3	3992	1832	1
3	4001	1836	1
3	4006	1840	1
3	4014	1844	1
3	4023	1848	1
3	4032	1852	1
3	4042	1856	1
3	4047	1860	1
3	4057	1864	1
3	4068	1868	1
3	4079	1872	1
3	4091	1876	1
3	4096	1880	1
3	4104	1884	1
3	4114	1888	1
3	4124	1892	1
3	4134	1896	1
3	4139	1900	1
3	4148	1904	1
3	4158	1908	1
3	4168	1912	1
3	4178	1916	1
3	4183	1920	1
3	4193	1924	1
3	4203	1928	1
3	4212	1932	1
3	4223	1936	1
3	4228	1940	1
3	4237	1944	1
3	4248	1948	1
3	4258	1952	1
3	4268	1956	1
3	4273	1960	1
3	4282	1964	1
3	4291	1968	1
3	4301	1972	1
3	4311	1976	1
3	4316	1980	1
3	4324	1984	1
3	4335	1988	1
3	4344	1992	1
3	4353	1996	1
3	4358	2000	1
3	4366	2004	1
3	4377	2008	1
3	4386	2012	1
3	4395	2016	1
3	4400	2020	1
3	4408	2024	1
3	4418	2028	1
3	4428	2032	1
3	4437	2036	1
3	4442	2040	1
3	4452	2044	1
3	4462	2048	1
3	4472	2052	1
3	4481	2056	1
3	4486	2060	1
3	4494	2064	1
3	4503	2068	1
3	4512	2072	1
3	4521	2076	1
3	4526	2080	1
3	4534	2084	1
3	4544	2088	1
3	4557	2092	1
3	4566	2096	1
3	4571	2100	1
3	4579	2104	1
3	4589	2108	1
3	4599	2112	1
3	4610	2116	1
3	4615	2120	1
3	4623	2124	1
3	4632	2128	1
3	4641	2132	1
3	4650	2136	1
3	4655	2140	1
3	4663	2144	1
3	4673	2148	1
3	4684	2152	1
3	4694	2156	1
3	4699	2160	1
3	4707	2164	1
3	4716	2168	1
3	4725	2172	1
3	4734	2176	1
3	4739	2180	1
3	4747	2184	1
3	4757	2188	1
3	4767	2192	1
3	4777	2196	1
3	4782	2200	1
3	4792	2204	1
3	4803	2208	1
3	4814	2212	1
3	4826	2216	1
3	4831	2220	1
3	4839	2224	1
3	4849	2228	1
3	4859	2232	1
3	4869	2236	1
3	4874	2240	1
3	4884	2244	1
3	4894	2248	1
3	4903	2252	1
3	4913	2256	1
3	4918	2260	1
3	4928	2264	1
3	4938	2268	1
3	4949	2272	1
3	4958	2276	1
3	4963	2280	1
3	4971	2284	1
3	4980	2288	1
3	4989	2292	1
3	4998	2296	1
3	5003	2300	1
3	5013	2304	1
3	5022	2308	1
3	5031	2312	1
3	5041	2316	1
3	5046	2320	1
3	5055	2324	1
3	5064	2328	1
3	5073	2332	1
3	5083	2336	1
3	5088	2340	1
3	5099	2344	1
3	5109	2348	1
3	5120	2352	1
3	5130	2356	1
3	5135	2360	1
3	5143	2364	1
3	5152	2368	1
3	5162	2372	1
3	5172	2376	1
3	5177	2380	1
3	5185	2384	1
3	5197	2388	1
3	5206	2392	1
3	5215	2396	1
3	5220	2400	1
3	5228	2404	1
3	5237	2408	1
3	5246	2412	1
3	5256	2416	1
3	5261	2420	1
3	5271	2424	1
3	5282	2428	1
3	5293	2432	1
3	5305	2436	1
3	5310	2440	1
3	5318	2444	1
3	5328	2448	1
3	5338	2452	1
3	5347	2456	1
3	5352	2460	1
3	5361	2464	1
3	5371	2468	1
3	5380	2472	1
3	5389	2476	1
3	5394	2480	1
3	5403	2484	1
3	5413	2488	1
3	5423	2492	1
3	5434	2496	1
3	5439	2500	1
3	5449	2504	1
3	5461	2508	1
3	5470	2512	1
3	5481	2516	1
3	5486	2520	1
3	5494	2524	1
3	5503	2528	1
3	5512	2532	1
3	5522	2536	1
3	5527	2540	1
3	5536	2544	1
3	5545	2548	1
3	5555	2552	1
3	5565	2556	1
3	5570	2560	1
3	5578	2564	1
3	5589	2568	1
3	5599	2572	1
3	5609	2576	1
3	5614	2580	1
3	5622	2584	1
3	5631	2588	1
3	5641	2592	1
3	5651	2596	1
3	5656	2600	1
3	5666	2604	1
3	5675	2608	1
3	5684	2612	1
3	5693	2616	1
3	5698	2620	1
3	5706	2624	1
3	5715	2628	1
3	5726	2632	1
3	5736	2636	1
3	5741	2640	1
3	5750	2644	1
3	5760	2648	1
3	5770	2652	1
3	5779	2656	1
3	5784	2660	1
3	5792	2664	1
3	5801	2668	1
3	5811	2672	1
3	5822	2676	1
3	5827	2680	1
3	5837	2684	1
3	5848	2688	1
3	5859	2692	1
3	5869	2696	1
3	5874	2700	1
3	5883	2704	1
3	5894	2708	1
3	5906	2712	1
3	5917	2716	1
3	5922	2720	1
3	5930	2724	1
3	5939	2728	1
3	5948	2732	1
3	5958	2736	1
3	5963	2740	1
3	5973	2744	1
3	5985	2748	1
3	5994	2752	1
3	6003	2756	1
3	6008	2760	1
3	6017	2764	1
3	6028	2768	1
3	6040	2772	1
3	6050	2776	1
3	6055	2780	1
3	6064	2784	1
3	6073	2788	1
3	6082	2792	1
3	6092	2796	1
3	6097	2800	1
3	6106	2804	1
3	6116	2808	1
3	6126	2812	1
3	6135	2816	1
3	6140	2820	1
3	6148	2824	1
3	6157	2828	1
3	6166	2832	1
3	6175	2836	1
3	6180	2840	1
3	6189	2844	1
3	6200	2848	1
3	6210	2852	1
3	6221	2856	1
3	6226	2860	1
3	6234	2864	1
3	6243	2868	1
3	6252	2872	1
3	6262	2876	1
3	6267	2880	1
3	6277	2884	1
3	6288	2888	1
3	6298	2892	1
3	6308	2896	1
3	6313	2900	1
3	6322	2904	1
3	6331	2908	1
3	6340	2912	1
3	6350	2916	1
3	6355	2920	1
3	6365	2924	1
3	6376	2928	1
3	6386	2932	1
3	6395	2936	1
3	6400	2940	1
3	6408	2944	1
3	6419	2948	1
3	6429	2952	1
3	6439	2956	1
3	6444	2960	1
3	6453	2964	1
3	6464	2968	1
3	6474	2972	1
3	6483	2976	1
3	6488	2980	1
3	6497	2984	1
3	6508	2988	1
3	6519	2992	1
3	6530	2996	1
3	6535	3000	1
3	6544	3004	1
3	6553	3008	1
3	6563	3012	1
3	6574	3016	1
3	6579	3020	1
3	6589	3024	1
3	6600	3028	1
3	6611	3032	1
3	6622	3036	1
3	6627	3040	1
3	6637	3044	1
3	6648	3048	1
3	6659	3052	1
3	6670	3056	1
3	6675	3060	1
3	6684	3064	1
3	6696	3068	1
3	6705	3072	1
3	6714	3076	1
3	6719	3080	1
3	6728	3084	1
3	6739	3088	1
3	6750	3092	1
3	6762	3096	1
3	6767	3100	1
3	6775	3104	1
3	6784	3108	1
3	6793	3112	1
3	6803	3116	1
3	6808	3120	1
3	6817	3124	1
3	6826	3128	1
3	6835	3132	1
3	6844	3136	1
3	6849	3140	1
3	6859	3144	1
3	6869	3148	1
3	6880	3152	1
3	6890	3156	1
3	6895	3160	1
3	6903	3164	1
3	6913	3168	1
3	6923	3172	1
3	6932	3176	1
3	6937	3180	1
3	6946	3184	1
3	6956	3188	1
3	6965	3192	1
3	6976	3196	1
3	6981	3200	1
3	6989	3204	1
3	6998	3208	1
3	7007	3212	1
3	7016	3216	1
3	7021	3220	1
3	7030	3224	1
3	7041	3228	1
3	7051	3232	1
3	7061	3236	1
3	7066	3240	1
3	7076	3244	1
3	7087	3248	1
3	7098	3252	1
3	7109	3256	1
3	7114	3260	1
3	7124	3264	1
3	7136	3268	1
3	7145	3272	1
3	7155	3276	1
3	7160	3280	1
3	7169	3284	1
3	7180	3288	1
3	7189	3292	1
3	7198	3296	1
3	7203	3300	1
3	7212	3304	1
3	7223	3308	1
3	7235	3312	1
3	7245	3316	1
3	7250	3320	1
3	7259	3324	1
3	7269	3328	1
3	7279	3332	1
3	7288	3336	1
3	7293	3340	1
3	7302	3344	1
3	7314	3348	1
3	7323	3352	1
3	7332	3356	1
3	7337	3360	1
3	7347	3364	1
3	7356	3368	1
3	7365	3372	1
3	7374	3376	1
3	7379	3380	1
3	7387	3384	1
3	7396	3388	1
3	7406	3392	1
3	7418	3396	1
3	7423	3400	1
3	7431	3404	1
3	7441	3408	1
3	7452	3412	1
3	7462	3416	1
3	7467	3420	1
3	7476	3424	1
3	7486	3428	1
3	7495	3432	1
3	7505	3436	1
3	7510	3440	1
3	7520	3444	1
3	7530	3448	1
3	7539	3452	1
3	7548	3456	1
3	7553	3460	1
3	7562	3464	1
3	7574	3468	1
3	7583	3472	1
3	7592	3476	1
3	7597	3480	1
3	7606	3484	1
3	7616	3488	1
3	7626	3492	1
3	7636	3496	1
3	7641	3500	1
3	7650	3504	1
3	7660	3508	1
3	7671	3512	1
3	7680	3516	1
3	7685	3520	1
3	7693	3524	1
3	7703	3528	1
3	7714	3532	1
3	7724	3536	1
3	7729	3540	1
3	7737	3544	1
3	7747	3548	1
3	7758	3552	1
3	7768	3556	1
3	7773	3560	1
3	7781	3564	1
3	7790	3568	1
3	7799	3572	1
3	7809	3576	1
3	7814	3580	1
3	7824	3584	1
3	7834	3588	1
3	7844	3592	1
3	7856	3596	1
3	7861	3600	1
4	5	5	0
4	15	10	1
4	25	15	0
4	34	20	0
4	49	25	0
4	58	30	0
4	67	35	0
4	76	40	0
4	91	45	0
4	100	50	0
4	110	55	1
4	120	60	0
4	133	65	0
4	143	70	1
4	153	75	0
4	162	80	0
4	177	85	0
4	186	90	0
4	197	95	0
4	206	100	0
4	219	105	0
4	228	110	0
4	238	115	1
4	248	120	0
4	263	125	0
4	272	130	0
4	281	135	0
4	290	140	0
4	304	145	1
4	314	150	0
4	323	155	0
4	332	160	0
4	347	165	0
4	358	170	0
4	367	175	0
4	376	180	0
4	389	185	0
4	398	190	0
4	408	195	1
4	418	200	0
4	431	205	0
4	441	210	1
4	451	215	0
4	461	220	1
4	476	225	1
4	486	230	0
4	496	235	1
4	507	240	1
4	523	245	0
4	532	250	0
4	542	255	1
4	552	260	0
4	565	265	0
4	574	270	0
4	585	275	0
4	595	280	1
4	609	285	0
4	619	290	1
4	630	295	1
4	640	300	0
4	653	305	0
4	662	310	0
4	671	315	0
4	682	320	0
4	695	325	0
4	704	330	0
4	713	335	0
4	723	340	1
4	737	345	0
4	746	350	0
4	755	355	0
4	765	360	1
4	779	365	0
4	789	370	1
4	801	375	0
4	810	380	0
4	823	385	0
4	832	390	0
4	842	395	1
4	852	400	0
4	866	405	1
4	876	410	0
4	886	415	1
4	897	420	1
4	911	425	0
4	921	430	1
4	931	435	0
4	941	440	1
4	956	445	1
4	967	450	1
4	979	455	0
4	988	460	0
4	1002	465	1
4	1013	470	1
4	1023	475	0
4	1033	480	1
4	1047	485	0
4	1057	490	1
4	1067	495	0
4	1078	500	0
4	1091	505	0
4	1100	510	0
4	1110	515	1
4	1120	520	0
4	1136	525	0
4	1145	530	0
4	1154	535	0
4	1163	540	0
4	1176	545	0
4	1185	550	0
4	1194	555	0
4	1203	560	0
4	1218	565	0
4	1227	570	0
4	1237	575	1
4	1247	580	0
4	1261	585	1
4	1273	590	0
4	1282	595	0
4	1291	600	0
4	1304	605	0
4	1314	610	1
4	1325	615	1
4	1336	620	1
4	1351	625	1
4	1361	630	0
4	1370	635	0
4	1380	640	1
4	1397	645	0
4	1406	650	0
4	1416	655	1
4	1426	660	0
4	1440	665	1
4	1450	670	0
4	1459	675	0
4	1469	680	1
4	1484	685	1
4	1495	690	1
4	1507	695	0
4	1516	700	0
4	1529	705	0
4	1539	710	1
4	1550	715	1
4	1561	720	1
4	1576	725	1
4	1586	730	0
4	1595	735	0
4	1605	740	1
4	1620	745	1
4	1631	750	1
4	1643	755	0
4	1653	760	1
4	1667	765	0
4	1678	770	0
4	1687	775	0
4	1696	780	0
4	1709	785	0
4	1718	790	0
4	1727	795	0
4	1736	800	0
4	1749	805	0
4	1758	810	0
4	1767	815	0
4	1777	820	1
4	1791	825	0
4	1801	830	1
4	1811	835	0
4	1820	840	0
4	1833	845	0
4	1845	850	0
4	1854	855	0
4	1863	860	0
4	1876	865	0
4	1885	870	0
4	1894	875	0
4	1904	880	1
4	1918	885	0
4	1928	890	1
4	1939	895	1
4	1949	900	0
4	1964	905	0
4	1974	910	1
4	1984	915	0
4	1994	920	1
4	2008	925	0
4	2017	930	0
4	2026	935	0
4	2036	940	1
4	2052	945	0
4	2061	950	0
4	2070	955	0
4	2080	960	1
4	2094	965	0
4	2103	970	0
4	2114	975	0
4	2123	980	0
4	2136	985	0
4	2145	990	0
4	2155	995	1
4	2165	1000	0
4	2178	1005	0
4	2187	1010	0
4	2196	1015	0
4	2206	1020	1
4	2221	1025	1
4	2231	1030	0
4	2241	1035	1
4	2252	1040	1
4	2267	1045	1
4	2278	1050	1
4	2289	1055	1
4	2299	1060	0
4	2313	1065	1
4	2324	1070	1
4	2334	1075	0
4	2344	1080	1
4	2360	1085	0
4	2369	1090	0
4	2378	1095	0
4	2388	1100	1
4	2402	1105	0
4	2412	1110	1
4	2422	1115	0
4	2431	1120	0
4	2444	1125	0
4	2454	1130	1
4	2465	1135	1
4	2475	1140	0
4	2488	1145	0
4	2498	1150	1
4	2509	1155	1
4	2519	1160	0
4	2532	1165	0
4	2544	1170	0
4	2553	1175	0
4	2562	1180	0
4	2575	1185	0
4	2585	1190	1
4	2596	1195	1
4	2606	1200	0
4	2619	1205	0
4	2629	1210	1
4	2639	1215	0
4	2650	1220	0
4	2663	1225	0
4	2672	1230	0
4	2681	1235	0
4	2691	1240	1
4	2707	1245	0
4	2717	1250	1
4	2727	1255	0
4	2736	1260	0
4	2750	1265	1
4	2762	1270	0
4	2771	1275	0
4	2780	1280	0
4	2793	1285	0
4	2803	1290	1
4	2813	1295	0
4	2822	1300	0
4	2835	1305	0
4	2844	1310	0
4	2854	1315	1
4	2865	1320	1
4	2880	1325	1
4	2890	1330	0
4	2900	1335	1
4	2911	1340	1
4	2927	1345	0
4	2936	1350	0
4	2945	1355	0
4	2955	1360	1
4	2969	1365	0
4	2979	1370	1
4	2990	1375	1
4	3000	1380	0
4	3014	1385	1
4	3025	1390	1
4	3036	1395	1
4	3046	1400	0
4	3061	1405	0
4	3070	1410	0
4	3079	1415	0
4	3088	1420	0
4	3101	1425	0
4	3111	1430	1
4	3123	1435	0
4	3132	1440	0
4	3145	1445	0
4	3155	1450	1
4	3166	1455	1
4	3176	1460	0
4	3189	1465	0
4	3199	1470	1
4	3210	1475	1
4	3220	1480	0
4	3233	1485	0
4	3243	1490	1
4	3256	1495	0
4	3265	1500	0
4	3278	1505	0
4	3287	1510	0
4	3296	1515	0
4	3305	1520	0
4	3320	1525	0
4	3329	1530	0
4	3340	1535	0
4	3349	1540	0
4	3362	1545	0
4	3371	1550	0
4	3380	1555	0
4	3389	1560	0
4	3403	1565	1
4	3413	1570	0
4	3422	1575	0
4	3432	1580	1
4	3447	1585	1
4	3459	1590	0
4	3468	1595	0
4	3478	1600	1
4	3493	1605	1
4	3503	1610	0
4	3513	1615	1
4	3525	1620	0
4	3538	1625	0
4	3547	1630	0
4	3556	1635	0
4	3567	1640	0
4	3580	1645	0
4	3589	1650	0
4	3598	1655	0
4	3609	1660	0
4	3622	1665	0
4	3631	1670	0
4	3640	1675	0
4	3649	1680	0
4	3662	1685	0
4	3671	1690	0
4	3681	1695	1
4	3692	1700	1
4	3707	1705	1
4	3719	1710	0
4	3728	1715	0
4	3737	1720	0
4	3751	1725	1
4	3762	1730	1
4	3774	1735	0
4	3783	1740	0
4	3796	1745	0
4	3806	1750	1
4	3816	1755	0
4	3825	1760	0
4	3839	1765	1
4	3850	1770	1
4	3860	1775	0
4	3869	1780	0
4	3885	1785	0
4	3895	1790	1
4	3905	1795	0
4	3914	1800	0
4	3927	1805	0
4	3936	1810	0
4	3946	1815	1
4	3956	1820	0
4	3970	1825	1
4	3981	1830	1
4	3993	1835	0
4	4002	1840	0
4	4015	1845	0
4	4024	1850	0
4	4033	1855	0
4	4043	1860	1
4	4058	1865	1
4	4069	1870	1
4	4080	1875	1
4	4092	1880	0
4	4105	1885	0
4	4115	1890	1
4	4125	1895	0
4	4135	1900	1
4	4149	1905	0
4	4159	1910	1
4	4169	1915	0
4	4179	1920	1
4	4194	1925	1
4	4204	1930	0
4	4213	1935	0
4	4224	1940	0
4	4238	1945	1
4	4249	1950	1
4	4259	1955	0
4	4269	1960	1
4	4283	1965	0
4	4292	1970	0
4	4302	1975	1
4	4312	1980	0
4	4325	1985	0
4	4336	1990	0
4	4345	1995	0
4	4354	2000	0
4	4367	2005	0
4	4378	2010	0
4	4387	2015	0
4	4396	2020	0
4	4409	2025	0
4	4419	2030	1
4	4429	2035	0
4	4438	2040	0
4	4453	2045	0
4	4463	2050	1
4	4473	2055	0
4	4482	2060	0
4	4495	2065	0
4	4504	2070	0
4	4513	2075	0
4	4522	2080	0
4	4535	2085	0
4	4545	2090	1
4	4558	2095	0
4	4567	2100	0
4	4580	2105	0
4	4590	2110	1
4	4600	2115	0
4	4611	2120	0
4	4624	2125	0
4	4633	2130	0
4	4642	2135	0
4	4651	2140	0
4	4664	2145	0
4	4674	2150	1
4	4685	2155	1
4	4695	2160	0
4	4708	2165	0
4	4717	2170	0
4	4726	2175	0
4	4735	2180	0
4	4748	2185	0
4	4758	2190	1
4	4768	2195	0
4	4778	2200	1
4	4793	2205	1
4	4804	2210	1
4	4815	2215	1
4	4827	2220	0
4	4840	2225	0
4	4850	2230	1
4	4860	2235	0
4	4870	2240	1
4	4885	2245	1
4	4895	2250	0
4	4904	2255	0
4	4914	2260	1
4	4929	2265	1
4	4939	2270	0
4	4950	2275	0
4	4959	2280	0
4	4972	2285	0
4	4981	2290	0
4	4990	2295	0
4	4999	2300	0
4	5014	2305	0
4	5023	2310	0
4	5032	2315	0
4	5042	2320	1
4	5056	2325	0
4	5065	2330	0
4	5074	2335	0
4	5084	2340	1
4	5100	2345	0
4	5110	2350	1
4	5121	2355	1
4	5131	2360	0
4	5144	2365	0
4	5153	2370	0
4	5163	2375	1
4	5173	2380	0
4	5186	2385	0
4	5198	2390	0
4	5207	2395	0
4	5216	2400	0
4	5229	2405	0
4	5238	2410	0
4	5247	2415	0
4	5257	2420	1
4	5272	2425	1
4	5283	2430	1
4	5294	2435	1
4	5306	2440	0
4	5319	2445	0
4	5329	2450	1
4	5339	2455	0
4	5348	2460	0
4	5362	2465	1
4	5372	2470	0
4	5381	2475	0
4	5390	2480	0
4	5404	2485	1
4	5414	2490	0
4	5424	2495	1
4	5435	2500	1
4	5450	2505	1
4	5462	2510	0
4	5471	2515	0
4	5482	2520	0
4	5495	2525	0
4	5504	2530	0
4	5513	2535	0
4	5523	2540	1
4	5537	2545	0
4	5546	2550	0
4	5556	2555	1
4	5566	2560	0
4	5579	2565	0
4	5590	2570	0
4	5600	2575	1
4	5610	2580	0
4	5623	2585	0
4	5632	2590	0
4	5642	2595	1
4	5652	2600	0
4	5667	2605	0
4	5676	2610	0
4	5685	2615	0
4	5694	2620	0
4	5707	2625	0
4	5716	2630	0
4	5727	2635	0
4	5737	2640	1
4	5751	2645	0
4	5761	2650	1
4	5771	2655	0
4	5780	2660	0
4	5793	2665	0
4	5802	2670	0
4	5812	2675	1
4	5823	2680	1
4	5838	2685	1
4	5849	2690	1
4	5860	2695	1
4	5870	2700	0
4	5884	2705	1
4	5895	2710	1
4	5907	2715	0
4	5918	2720	0
4	5931	2725	0
4	5940	2730	0
4	5949	2735	0
4	5959	2740	1
4	5974	2745	1
4	5986	2750	0
4	5995	2755	0
4	6004	2760	0
4	6018	2765	1
4	6029	2770	1
4	6041	2775	0
4	6051	2780	1
4	6065	2785	0
4	6074	2790	0
4	6083	2795	0
4	6093	2800	1
4	6107	2805	0
4	6117	2810	1
4	6127	2815	0
4	6136	2820	0
4	6149	2825	0
4	6158	2830	0
4	6167	2835	0
4	6176	2840	0
4	6190	2845	1
4	6201	2850	1
4	6211	2855	0
4	6222	2860	0
4	6235	2865	0
4	6244	2870	0
4	6253	2875	0
4	6263	2880	1
4	6278	2885	1
4	6289	2890	1
4	6299	2895	0
4	6309	2900	1
4	6323	2905	0
4	6332	2910	0
4	6341	2915	0
4	6351	2920	1
4	6366	2925	1
4	6377	2930	1
4	6387	2935	0
4	6396	2940	0
4	6409	2945	0
4	6420	2950	0
4	6430	2955	1
4	6440	2960	0
4	6454	2965	1
4	6465	2970	1
4	6475	2975	0
4	6484	2980	0
4	6498	2985	1
4	6509	2990	1
4	6520	2995	1
4	6531	3000	1
4	6545	3005	0
4	6554	3010	0
4	6564	3015	1
4	6575	3020	1
4	6590	3025	1
4	6601	3030	1
4	6612	3035	1
4	6623	3040	1
4	6638	3045	1
4	6649	3050	1
4	6660	3055	1
4	6671	3060	1
4	6685	3065	0
4	6697	3070	0
4	6706	3075	0
4	6715	3080	0
4	6729	3085	1
4	6740	3090	1
4	6751	3095	1
4	6763	3100	0
4	6776	3105	0
4	6785	3110	0
4	6794	3115	0
4	6804	3120	1
4	6818	3125	0
4	6827	3130	0
4	6836	3135	0
4	6845	3140	0
4	6860	3145	0
4	6870	3150	1
4	6881	3155	1
4	6891	3160	0
4	6904	3165	0
4	6914	3170	1
4	6924	3175	0
4	6933	3180	0
4	6947	3185	1
4	6957	3190	0
4	6966	3195	0
4	6977	3200	0
4	6990	3205	0
4	6999	3210	0
4	7008	3215	0
4	7017	3220	0
4	7031	3225	1
4	7042	3230	1
4	7052	3235	0
4	7062	3240	1
4	7077	3245	1
4	7088	3250	1
4	7099	3255	1
4	7110	3260	1
4	7125	3265	1
4	7137	3270	0
4	7146	3275	0
4	7156	3280	1
4	7170	3285	0
4	7181	3290	0
4	7190	3295	0
4	7199	3300	0
4	7213	3305	1
4	7224	3310	1
4	7236	3315	0
4	7246	3320	1
4	7260	3325	0
4	7270	3330	1
4	7280	3335	0
4	7289	3340	0
4	7303	3345	1
4	7315	3350	0
4	7324	3355	0
4	7333	3360	0
4	7348	3365	0
4	7357	3370	0
4	7366	3375	0
4	7375	3380	0
4	7388	3385	0
4	7397	3390	0
4	7407	3395	1
4	7419	3400	0
4	7432	3405	0
4	7442	3410	1
4	7453	3415	1
4	7463	3420	0
4	7477	3425	1
4	7487	3430	0
4	7496	3435	0
4	7506	3440	1
4	7521	3445	1
4	7531	3450	0
4	7540	3455	0
4	7549	3460	0
4	7563	3465	1
4	7575	3470	0
4	7584	3475	0
4	7593	3480	0
4	7607	3485	1
4	7617	3490	0
4	7627	3495	1
4	7637	3500	0
4	7651	3505	1
4	7661	3510	0
4	7672	3515	0
4	7681	3520	0
4	7694	3525	0
4	7704	3530	1
4	7715	3535	1
4	7725	3540	0
4	7738	3545	0
4	7748	3550	1
4	7759	3555	1
4	7769	3560	0
4	7782	3565	0
4	7791	3570	0
4	7800	3575	0
4	7810	3580	1
4	7825	3585	1
4	7835	3590	0
4	7845	3595	1
4	7857	3600	0
5	17	10	1
5	112	55	1
5	145	70	1
5	443	210	1
5	467	220	1
5	478	225	1
5	498	235	1
5	513	240	1
5	947	440	1
5	1342	620	1
5	1353	625	1
5	1386	640	1
5	1497	690	1
5	1552	715	1
5	1567	720	1
5	1622	745	1
5	1941	895	1
5	2042	940	1
5	2086	960	1
5	2212	1020	1
5	2223	1025	1
5	2243	1035	1
5	2258	1040	1
5	2269	1045	1
5	2280	1050	1
5	2326	1070	1
5	2394	1100	1
5	2587	1190	1
5	2752	1265	1
5	2805	1290	1
5	2871	1320	1
5	3027	1390	1
5	3808	1750	1
5	3852	1770	1
5	3897	1790	1
5	3948	1815	1
5	3972	1825	1
5	3983	1830	1
5	4071	1870	1
5	4117	1890	1
5	4196	1925	1
5	4465	2050	1
5	4547	2090	1
5	4592	2110	1
5	4676	2150	1
5	4687	2155	1
5	4795	2205	1
5	4852	2230	1
5	4887	2245	1
5	5263	2420	1
5	5644	2595	1
5	5743	2640	1
5	5763	2650	1
5	5814	2675	1
5	5851	2690	1
5	6020	2765	1
5	6192	2845	1
5	6269	2880	1
5	6315	2900	1
5	6357	2920	1
5	6368	2925	1
5	6500	2985	1
5	6614	3035	1
5	6640	3045	1
5	6810	3120	1
5	6916	3170	1
5	6949	3185	1
5	7079	3245	1
5	7252	3320	1
5	7444	3410	1
5	7455	3415	1
5	7479	3425	1
5	7512	3440	1
5	7565	3465	1
5	7609	3485	1
5	7706	3530	1
5	7717	3535	1
5	7827	3585	1
6	17	10	6
6	112	55	47
6	145	70	58
6	443	210	194
6	467	220	200
6	478	225	201
6	498	235	179
6	513	240	168
6	947	440	228
6	1342	620	396
6	1353	625	397
6	1386	640	404
6	1497	690	446
6	1552	715	271
6	1567	720	96
6	1622	745	117
6	1941	895	251
6	2042	940	248
6	2086	960	244
6	2212	1020	296
6	2223	1025	277
6	2243	1035	139
6	2258	1040	96
6	2269	1045	81
6	2280	1050	26
6	2326	1070	42
6	2394	1100	64
6	2587	1190	146
6	2752	1265	217
6	2805	1290	238
6	2871	1320	248
6	3027	1390	286
6	3808	1750	558
6	3852	1770	502
6	3897	1790	498
6	3948	1815	491
6	3972	1825	433
6	3983	1830	78
6	4071	1870	98
6	4117	1890	98
6	4196	1925	109
6	4465	2050	222
6	4547	2090	258
6	4592	2110	238
6	4676	2150	258
6	4687	2155	227
6	4795	2205	153
6	4852	2230	138
6	4887	2245	133
6	5263	2420	268
6	5644	2595	439
6	5743	2640	432
6	5763	2650	418
6	5814	2675	427
6	5851	2690	266
6	6020	2765	169
6	6192	2845	201
6	6269	2880	228
6	6315	2900	224
6	6357	2920	228
6	6368	2925	157
6	6500	2985	137
6	6614	3035	151
6	6640	3045	141
6	6810	3120	196
6	6916	3170	242
6	6949	3185	197
6	7079	3245	209
6	7252	3320	272
6	7444	3410	286
6	7455	3415	243
6	7479	3425	237
6	7512	3440	192
6	7565	3465	141
6	7609	3485	73
6	7706	3530	114
6	7717	3535	107
6	7827	3585	141
7	17	10	0
7	112	55	1
7	145	70	1
7	443	210	1
7	467	220	1
7	478	225	1
7	498	235	1
7	513	240	1
7	947	440	1
7	1342	620	1
7	1353	625	1
7	1386	640	1
7	1497	690	1
7	1552	715	1
7	1567	720	1
7	1622	745	1
7	1941	895	1
7	2042	940	1
7	2086	960	1
7	2212	1020	1
7	2223	1025	1
7	2243	1035	1
7	2258	1040	1
7	2269	1045	1
7	2280	1050	1
7	2326	1070	1
7	2394	1100	1
7	2587	1190	1
7	2752	1265	1
7	2805	1290	1
7	2871	1320	1
7	3027	1390	1
7	3808	1750	1
7	3852	1770	1
7	3897	1790	1
7	3948	1815	1
7	3972	1825	1
7	3983	1830	1
7	4071	1870	1
7	4117	1890	1
7	4196	1925	1
7	4465	2050	1
7	4547	2090	1
7	4592	2110	1
7	4676	2150	1
7	4687	2155	1
7	4795	2205	1
7	4852	2230	1
7	4887	2245	1
7	5263	2420	1
7	5644	2595	1
7	5743	2640	1
7	5763	2650	1
7	5814	2675	1
7	5851	2690	1
7	6020	2765	1
7	6192	2845	1
7	6269	2880	1
7	6315	2900	1
7	6357	2920	1
7	6368	2925	1
7	6500	2985	1
7	6614	3035	1
7	6640	3045	1
7	6810	3120	1
7	6916	3170	1
7	6949	3185	1
7	7079	3245	1
7	7252	3320	1
7	7444	3410	1
7	7455	3415	1
7	7479	3425	1
7	7512	3440	1
7	7565	3465	1
7	7609	3485	1
7	7706	3530	1
7	7717	3535	1
7	7827	3585	1
8	45	24	1
8	54	28	1
8	63	32	1
8	72	36	1
8	77	40	1
8	87	44	1
8	96	48	1
8	106	52	1
8	116	56	1
8	121	60	1
8	129	64	1
8	139	68	1
8	149	72	1
8	158	76	1
8	163	80	1
8	173	84	1
8	182	88	1
8	193	92	1
8	202	96	1
8	207	100	1
8	215	104	1
8	224	108	1
8	234	112	1
8	244	116	1
8	249	120	1
8	259	124	1
8	268	128	1
8	277	132	1
8	286	136	1
8	291	140	1
8	300	144	1
8	310	148	1
8	319	152	1
8	328	156	1
8	333	160	1
8	343	164	1
8	354	168	1
8	363	172	1
8	372	176	1
8	377	180	1
8	385	184	1
8	394	188	1
8	404	192	1
8	419	200	1
8	427	204	1
8	437	208	1
8	447	212	1
8	457	216	1
8	462	220	1
8	472	224	1
8	482	228	1
8	492	232	1
8	503	236	1
8	508	240	1
8	519	244	1
8	528	248	1
8	538	252	1
8	548	256	1
8	553	260	1
8	561	264	1
8	570	268	1
8	581	272	1
8	591	276	1
8	596	280	1
8	605	284	1
8	615	288	1
8	626	292	1
8	636	296	1
8	641	300	1
8	649	304	1
8	658	308	1
8	667	312	1
8	678	316	1
8	683	320	1
8	691	324	1
8	700	328	1
8	709	332	1
8	719	336	1
8	724	340	1
8	733	344	1
8	742	348	1
8	751	352	1
8	761	356	1
8	766	360	1
8	775	364	1
8	785	368	1
8	806	376	1
8	811	380	1
8	819	384	1
8	828	388	1
8	838	392	1
8	853	400	1
8	862	404	1
8	872	408	1
8	882	412	1
8	893	416	1
8	898	420	1
8	917	428	1
8	927	432	1
8	937	436	1
8	942	440	1
8	952	444	1
8	963	448	1
8	975	452	1
8	984	456	1
8	989	460	1
8	998	464	1
8	1009	468	1
8	1019	472	1
8	1029	476	1
8	1034	480	1
8	1043	484	1
8	1053	488	1
8	1074	496	1
8	1079	500	1
8	1087	504	1
8	1096	508	1
8	1106	512	1
8	1116	516	1
8	1121	520	1
8	1132	524	1
8	1141	528	1
8	1150	532	1
8	1159	536	1
8	1164	540	1
8	1172	544	1
8	1181	548	1
8	1190	552	1
8	1199	556	1
8	1204	560	1
8	1214	564	1
8	1223	568	1
8	1233	572	1
8	1243	576	1
8	1248	580	1
8	1257	584	1
8	1269	588	1
8	1278	592	1
8	1287	596	1
8	1292	600	1
8	1300	604	1
8	1310	608	1
8	1337	620	1
8	1347	624	1
8	1357	628	1
8	1366	632	1
8	1376	636	1
8	1381	640	1
8	1393	644	1
8	1402	648	1
8	1412	652	1
8	1427	660	1
8	1436	664	1
8	1455	672	1
8	1465	676	1
8	1470	680	1
8	1480	684	1
8	1491	688	1
8	1503	692	1
8	1512	696	1
8	1517	700	1
8	1525	704	1
8	1535	708	1
8	1546	712	1
8	1557	716	1
8	1562	720	1
8	1572	724	1
8	1582	728	1
8	1591	732	1
8	1601	736	1
8	1606	740	1
8	1627	748	1
8	1649	756	1
8	1654	760	1
8	1674	768	1
8	1683	772	1
8	1692	776	1
8	1697	780	1
8	1705	784	1
8	1714	788	1
8	1723	792	1
8	1732	796	1
8	1737	800	1
8	1745	804	1
8	1754	808	1
8	1763	812	1
8	1773	816	1
8	1778	820	1
8	1797	828	1
8	1807	832	1
8	1816	836	1
8	1821	840	1
8	1829	844	1
8	1841	848	1
8	1850	852	1
8	1859	856	1
8	1864	860	1
8	1872	864	1
8	1881	868	1
8	1890	872	1
8	1900	876	1
8	1905	880	1
8	1914	884	1
8	1924	888	1
8	1945	896	1
8	1950	900	1
8	1960	904	1
8	1970	908	1
8	1990	916	1
8	1995	920	1
8	2013	928	1
8	2022	932	1
8	2032	936	1
8	2037	940	1
8	2048	944	1
8	2057	948	1
8	2066	952	1
8	2076	956	1
8	2081	960	1
8	2090	964	1
8	2099	968	1
8	2110	972	1
8	2119	976	1
8	2124	980	1
8	2132	984	1
8	2141	988	1
8	2151	992	1
8	2161	996	1
8	2166	1000	1
8	2174	1004	1
8	2183	1008	1
8	2192	1012	1
8	2202	1016	1
8	2207	1020	1
8	2217	1024	1
8	2227	1028	1
8	2237	1032	1
8	2248	1036	1
8	2253	1040	1
8	2263	1044	1
8	2274	1048	1
8	2285	1052	1
8	2295	1056	1
8	2300	1060	1
8	2309	1064	1
8	2320	1068	1
8	2330	1072	1
8	2340	1076	1
8	2345	1080	1
8	2356	1084	1
8	2365	1088	1
8	2374	1092	1
8	2384	1096	1
8	2389	1100	1
8	2398	1104	1
8	2408	1108	1
8	2418	1112	1
8	2427	1116	1
8	2432	1120	1
8	2440	1124	1
8	2450	1128	1
8	2476	1140	1
8	2484	1144	1
8	2494	1148	1
8	2505	1152	1
8	2515	1156	1
8	2520	1160	1
8	2528	1164	1
8	2540	1168	1
8	2549	1172	1
8	2558	1176	1
8	2563	1180	1
8	2571	1184	1
8	2581	1188	1
8	2592	1192	1
8	2607	1200	1
8	2615	1204	1
8	2625	1208	1
8	2646	1216	1
8	2651	1220	1
8	2659	1224	1
8	2668	1228	1
8	2677	1232	1
8	2687	1236	1
8	2692	1240	1
8	2713	1248	1
8	2723	1252	1
8	2732	1256	1
8	2737	1260	1
8	2746	1264	1
8	2758	1268	1
8	2767	1272	1
8	2776	1276	1
8	2781	1280	1
8	2789	1284	1
8	2799	1288	1
8	2809	1292	1
8	2818	1296	1
8	2823	1300	1
8	2831	1304	1
8	2840	1308	1
8	2850	1312	1
8	2866	1320	1
8	2876	1324	1
8	2886	1328	1
8	2896	1332	1
8	2907	1336	1
8	2912	1340	1
8	2923	1344	1
8	2932	1348	1
8	2941	1352	1
8	2951	1356	1
8	2956	1360	1
8	2965	1364	1
8	2975	1368	1
8	2986	1372	1
8	2996	1376	1
8	3001	1380	1
8	3010	1384	1
8	3021	1388	1
8	3032	1392	1
8	3042	1396	1
8	3047	1400	1
8	3057	1404	1
8	3066	1408	1
8	3075	1412	1
8	3084	1416	1
8	3089	1420	1
8	3097	1424	1
8	3107	1428	1
8	3119	1432	1
8	3128	1436	1
8	3133	1440	1
8	3141	1444	1
8	3151	1448	1
8	3177	1460	1
8	3185	1464	1
8	3195	1468	1
8	3221	1480	1
8	3229	1484	1
8	3239	1488	1
8	3252	1492	1
8	3261	1496	1
8	3266	1500	1
8	3274	1504	1
8	3283	1508	1
8	3292	1512	1
8	3301	1516	1
8	3306	1520	1
8	3316	1524	1
8	3325	1528	1
8	3336	1532	1
8	3345	1536	1
8	3350	1540	1
8	3358	1544	1
8	3367	1548	1
8	3376	1552	1
8	3385	1556	1
8	3390	1560	1
8	3399	1564	1
8	3409	1568	1
8	3418	1572	1
8	3428	1576	1
8	3433	1580	1
8	3443	1584	1
8	3464	1592	1
8	3474	1596	1
8	3479	1600	1
8	3489	1604	1
8	3499	1608	1
8	3509	1612	1
8	3526	1620	1
8	3534	1624	1
8	3543	1628	1
8	3552	1632	1
8	3563	1636	1
8	3568	1640	1
8	3576	1644	1
8	3585	1648	1
8	3594	1652	1
8	3605	1656	1
8	3610	1660	1
8	3618	1664	1
8	3627	1668	1
8	3636	1672	1
8	3645	1676	1
8	3650	1680	1
8	3658	1684	1
8	3667	1688	1
8	3677	1692	1
8	3688	1696	1
8	3693	1700	1
8	3715	1708	1
8	3724	1712	1
8	3733	1716	1
8	3738	1720	1
8	3747	1724	1
8	3758	1728	1
8	3770	1732	1
8	3779	1736	1
8	3784	1740	1
8	3792	1744	1
8	3802	1748	1
8	3812	1752	1
8	3821	1756	1
8	3826	1760	1
8	3835	1764	1
8	3846	1768	1
8	3856	1772	1
8	3865	1776	1
8	3870	1780	1
8	3881	1784	1
8	3891	1788	1
8	3901	1792	1
8	3910	1796	1
8	3915	1800	1
8	3923	1804	1
8	3932	1808	1
8	3942	1812	1
8	3952	1816	1
8	3957	1820	1
8	3966	1824	1
8	3977	1828	1
8	3989	1832	1
8	3998	1836	1
8	4003	1840	1
8	4011	1844	1
8	4020	1848	1
8	4029	1852	1
8	4039	1856	1
8	4044	1860	1
8	4054	1864	1
8	4065	1868	1
8	4076	1872	1
8	4088	1876	1
8	4093	1880	1
8	4101	1884	1
8	4111	1888	1
8	4121	1892	1
8	4131	1896	1
8	4136	1900	1
8	4145	1904	1
8	4155	1908	1
8	4165	1912	1
8	4175	1916	1
8	4180	1920	1
8	4190	1924	1
8	4200	1928	1
8	4209	1932	1
8	4220	1936	1
8	4225	1940	1
8	4234	1944	1
8	4245	1948	1
8	4255	1952	1
8	4265	1956	1
8	4270	1960	1
8	4279	1964	1
8	4288	1968	1
8	4298	1972	1
8	4308	1976	1
8	4313	1980	1
8	4321	1984	1
8	4332	1988	1
8	4341	1992	1
8	4350	1996	1
8	4355	2000	1
8	4363	2004	1
8	4374	2008	1
8	4383	2012	1
8	4392	2016	1
8	4397	2020	1
8	4405	2024	1
8	4415	2028	1
8	4425	2032	1
8	4434	2036	1
8	4439	2040	1
8	4449	2044	1
8	4459	2048	1
8	4469	2052	1
8	4478	2056	1
8	4483	2060	1
8	4491	2064	1
8	4500	2068	1
8	4509	2072	1
8	4518	2076	1
8	4523	2080	1
8	4531	2084	1
8	4541	2088	1
8	4554	2092	1
8	4563	2096	1
8	4568	2100	1
8	4576	2104	1
8	4586	2108	1
8	4596	2112	1
8	4607	2116	1
8	4612	2120	1
8	4620	2124	1
8	4629	2128	1
8	4638	2132	1
8	4647	2136	1
8	4652	2140	1
8	4660	2144	1
8	4670	2148	1
8	4681	2152	1
8	4691	2156	1
8	4696	2160	1
8	4704	2164	1
8	4713	2168	1
8	4722	2172	1
8	4731	2176	1
8	4736	2180	1
8	4744	2184	1
8	4754	2188	1
8	4774	2196	1
8	4779	2200	1
8	4800	2208	1
8	4828	2220	1
8	4836	2224	1
8	4846	2228	1
8	4856	2232	1
8	4866	2236	1
8	4871	2240	1
8	4891	2248	1
8	4900	2252	1
8	4910	2256	1
8	4915	2260	1
8	4925	2264	1
8	4946	2272	1
8	4955	2276	1
8	4960	2280	1
8	4968	2284	1
8	4977	2288	1
8	4986	2292	1
8	4995	2296	1
8	5000	2300	1
8	5010	2304	1
8	5019	2308	1
8	5028	2312	1
8	5038	2316	1
8	5043	2320	1
8	5061	2328	1
8	5070	2332	1
8	5080	2336	1
8	5085	2340	1
8	5096	2344	1
8	5106	2348	1
8	5117	2352	1
8	5127	2356	1
8	5132	2360	1
8	5140	2364	1
8	5149	2368	1
8	5159	2372	1
8	5169	2376	1
8	5174	2380	1
8	5182	2384	1
8	5194	2388	1
8	5203	2392	1
8	5212	2396	1
8	5217	2400	1
8	5225	2404	1
8	5234	2408	1
8	5243	2412	1
8	5253	2416	1
8	5258	2420	1
8	5268	2424	1
8	5279	2428	1
8	5302	2436	1
8	5307	2440	1
8	5315	2444	1
8	5325	2448	1
8	5335	2452	1
8	5344	2456	1
8	5349	2460	1
8	5358	2464	1
8	5368	2468	1
8	5377	2472	1
8	5386	2476	1
8	5391	2480	1
8	5400	2484	1
8	5420	2492	1
8	5436	2500	1
8	5446	2504	1
8	5458	2508	1
8	5467	2512	1
8	5478	2516	1
8	5483	2520	1
8	5491	2524	1
8	5500	2528	1
8	5509	2532	1
8	5519	2536	1
8	5524	2540	1
8	5533	2544	1
8	5542	2548	1
8	5552	2552	1
8	5562	2556	1
8	5567	2560	1
8	5575	2564	1
8	5586	2568	1
8	5596	2572	1
8	5606	2576	1
8	5611	2580	1
8	5619	2584	1
8	5628	2588	1
8	5638	2592	1
8	5648	2596	1
8	5653	2600	1
8	5663	2604	1
8	5672	2608	1
8	5681	2612	1
8	5690	2616	1
8	5695	2620	1
8	5703	2624	1
8	5712	2628	1
8	5723	2632	1
8	5733	2636	1
8	5738	2640	1
8	5747	2644	1
8	5757	2648	1
8	5767	2652	1
8	5776	2656	1
8	5781	2660	1
8	5789	2664	1
8	5798	2668	1
8	5808	2672	1
8	5819	2676	1
8	5824	2680	1
8	5856	2692	1
8	5871	2700	1
8	5880	2704	1
8	5891	2708	1
8	5903	2712	1
8	5914	2716	1
8	5919	2720	1
8	5927	2724	1
8	5936	2728	1
8	5945	2732	1
8	5955	2736	1
8	5960	2740	1
8	5970	2744	1
8	5991	2752	1
8	6000	2756	1
8	6005	2760	1
8	6014	2764	1
8	6025	2768	1
8	6037	2772	1
8	6047	2776	1
8	6052	2780	1
8	6061	2784	1
8	6070	2788	1
8	6079	2792	1
8	6089	2796	1
8	6094	2800	1
8	6103	2804	1
8	6113	2808	1
8	6123	2812	1
8	6132	2816	1
8	6137	2820	1
8	6145	2824	1
8	6154	2828	1
8	6163	2832	1
8	6172	2836	1
8	6177	2840	1
8	6186	2844	1
8	6197	2848	1
8	6218	2856	1
8	6223	2860	1
8	6231	2864	1
8	6240	2868	1
8	6249	2872	1
8	6259	2876	1
8	6264	2880	1
8	6274	2884	1
8	6285	2888	1
8	6305	2896	1
8	6310	2900	1
8	6319	2904	1
8	6328	2908	1
8	6337	2912	1
8	6347	2916	1
8	6352	2920	1
8	6362	2924	1
8	6373	2928	1
8	6392	2936	1
8	6397	2940	1
8	6405	2944	1
8	6416	2948	1
8	6426	2952	1
8	6441	2960	1
8	6450	2964	1
8	6480	2976	1
8	6485	2980	1
8	6494	2984	1
8	6505	2988	1
8	6516	2992	1
8	6527	2996	1
8	6532	3000	1
8	6541	3004	1
8	6550	3008	1
8	6560	3012	1
8	6571	3016	1
8	6576	3020	1
8	6586	3024	1
8	6597	3028	1
8	6608	3032	1
8	6619	3036	1
8	6624	3040	1
8	6634	3044	1
8	6645	3048	1
8	6656	3052	1
8	6667	3056	1
8	6672	3060	1
8	6681	3064	1
8	6693	3068	1
8	6702	3072	1
8	6711	3076	1
8	6716	3080	1
8	6725	3084	1
8	6736	3088	1
8	6764	3100	1
8	6772	3104	1
8	6781	3108	1
8	6790	3112	1
8	6800	3116	1
8	6805	3120	1
8	6814	3124	1
8	6823	3128	1
8	6832	3132	1
8	6841	3136	1
8	6846	3140	1
8	6856	3144	1
8	6866	3148	1
8	6892	3160	1
8	6900	3164	1
8	6910	3168	1
8	6920	3172	1
8	6929	3176	1
8	6934	3180	1
8	6943	3184	1
8	6953	3188	1
8	6962	3192	1
8	6973	3196	1
8	6978	3200	1
8	6986	3204	1
8	6995	3208	1
8	7004	3212	1
8	7013	3216	1
8	7018	3220	1
8	7027	3224	1
8	7038	3228	1
8	7048	3232	1
8	7058	3236	1
8	7063	3240	1
8	7084	3248	1
8	7095	3252	1
8	7106	3256	1
8	7111	3260	1
8	7121	3264	1
8	7133	3268	1
8	7142	3272	1
8	7152	3276	1
8	7157	3280	1
8	7177	3288	1
8	7186	3292	1
8	7195	3296	1
8	7200	3300	1
8	7209	3304	1
8	7220	3308	1
8	7232	3312	1
8	7242	3316	1
8	7247	3320	1
8	7256	3324	1
8	7266	3328	1
8	7285	3336	1
8	7290	3340	1
8	7299	3344	1
8	7311	3348	1
8	7320	3352	1
8	7329	3356	1
8	7334	3360	1
8	7344	3364	1
8	7353	3368	1
8	7362	3372	1
8	7371	3376	1
8	7376	3380	1
8	7384	3384	1
8	7393	3388	1
8	7403	3392	1
8	7415	3396	1
8	7420	3400	1
8	7428	3404	1
8	7438	3408	1
8	7449	3412	1
8	7459	3416	1
8	7464	3420	1
8	7473	3424	1
8	7483	3428	1
8	7492	3432	1
8	7502	3436	1
8	7507	3440	1
8	7517	3444	1
8	7536	3452	1
8	7545	3456	1
8	7550	3460	1
8	7559	3464	1
8	7571	3468	1
8	7580	3472	1
8	7589	3476	1
8	7594	3480	1
8	7603	3484	1
8	7613	3488	1
8	7623	3492	1
8	7633	3496	1
8	7638	3500	1
8	7647	3504	1
8	7668	3512	1
8	7677	3516	1
8	7682	3520	1
8	7690	3524	1
8	7700	3528	1
8	7711	3532	1
8	7721	3536	1
8	7726	3540	1
8	7734	3544	1
8	7744	3548	1
8	7755	3552	1
8	7770	3560	1
8	7778	3564	1
8	7787	3568	1
8	7796	3572	1
8	7806	3576	1
8	7811	3580	1
8	7821	3584	1
8	7831	3588	1
8	7841	3592	1
8	7853	3596	1
8	7858	3600	1
9	46	24	1
9	55	28	1
9	64	32	1
9	73	36	1
9	78	40	1
9	88	44	1
9	97	48	1
9	107	52	1
9	117	56	1
9	122	60	1
9	130	64	1
9	140	68	1
9	150	72	1
9	159	76	1
9	164	80	1
9	174	84	1
9	183	88	1
9	194	92	1
9	203	96	1
9	208	100	1
9	216	104	1
9	225	108	1
9	235	112	1
9	245	116	1
9	250	120	1
9	260	124	1
9	269	128	1
9	278	132	1
9	287	136	1
9	292	140	1
9	301	144	1
9	311	148	1
9	320	152	1
9	329	156	1
9	334	160	1
9	344	164	1
9	355	168	1
9	364	172	1
9	373	176	1
9	378	180	1
9	386	184	1
9	395	188	1
9	405	192	1
9	415	196	1
9	420	200	1
9	428	204	1
9	438	208	1
9	448	212	1
9	458	216	1
9	463	220	1
9	473	224	1
9	483	228	1
9	493	232	1
9	504	236	1
9	509	240	1
9	520	244	1
9	529	248	1
9	539	252	1
9	549	256	1
9	554	260	1
9	562	264	1
9	571	268	1
9	582	272	1
9	592	276	1
9	597	280	1
9	616	288	1
9	637	296	1
9	642	300	1
9	650	304	1
9	659	308	1
9	668	312	1
9	679	316	1
9	684	320	1
9	692	324	1
9	701	328	1
9	710	332	1
9	720	336	1
9	725	340	1
9	734	344	1
9	743	348	1
9	752	352	1
9	762	356	1
9	767	360	1
9	786	368	1
9	798	372	1
9	807	376	1
9	812	380	1
9	820	384	1
9	829	388	1
9	839	392	1
9	849	396	1
9	854	400	1
9	863	404	1
9	883	412	1
9	894	416	1
9	899	420	1
9	908	424	1
9	918	428	1
9	938	436	1
9	943	440	1
9	953	444	1
9	976	452	1
9	985	456	1
9	990	460	1
9	999	464	1
9	1030	476	1
9	1035	480	1
9	1044	484	1
9	1054	488	1
9	1064	492	1
9	1075	496	1
9	1080	500	1
9	1088	504	1
9	1097	508	1
9	1107	512	1
9	1122	520	1
9	1133	524	1
9	1142	528	1
9	1151	532	1
9	1160	536	1
9	1165	540	1
9	1173	544	1
9	1182	548	1
9	1191	552	1
9	1200	556	1
9	1205	560	1
9	1215	564	1
9	1224	568	1
9	1234	572	1
9	1244	576	1
9	1249	580	1
9	1258	584	1
9	1279	592	1
9	1288	596	1
9	1293	600	1
9	1301	604	1
9	1311	608	1
9	1322	612	1
9	1333	616	1
9	1338	620	1
9	1348	624	1
9	1358	628	1
9	1367	632	1
9	1377	636	1
9	1382	640	1
9	1394	644	1
9	1403	648	1
9	1413	652	1
9	1423	656	1
9	1428	660	1
9	1437	664	1
9	1447	668	1
9	1456	672	1
9	1466	676	1
9	1471	680	1
9	1504	692	1
9	1513	696	1
9	1518	700	1
9	1526	704	1
9	1536	708	1
9	1558	716	1
9	1563	720	1
9	1573	724	1
9	1592	732	1
9	1602	736	1
9	1607	740	1
9	1617	744	1
9	1628	748	1
9	1640	752	1
9	1650	756	1
9	1655	760	1
9	1664	764	1
9	1675	768	1
9	1684	772	1
9	1693	776	1
9	1698	780	1
9	1706	784	1
9	1715	788	1
9	1724	792	1
9	1733	796	1
9	1738	800	1
9	1746	804	1
9	1755	808	1
9	1764	812	1
9	1774	816	1
9	1779	820	1
9	1788	824	1
9	1798	828	1
9	1817	836	1
9	1822	840	1
9	1830	844	1
9	1842	848	1
9	1851	852	1
9	1860	856	1
9	1865	860	1
9	1873	864	1
9	1882	868	1
9	1891	872	1
9	1901	876	1
9	1906	880	1
9	1925	888	1
9	1936	892	1
9	1946	896	1
9	1951	900	1
9	1961	904	1
9	1971	908	1
9	1981	912	1
9	1991	916	1
9	1996	920	1
9	2005	924	1
9	2014	928	1
9	2023	932	1
9	2033	936	1
9	2038	940	1
9	2049	944	1
9	2058	948	1
9	2067	952	1
9	2077	956	1
9	2082	960	1
9	2091	964	1
9	2100	968	1
9	2111	972	1
9	2120	976	1
9	2125	980	1
9	2133	984	1
9	2142	988	1
9	2152	992	1
9	2167	1000	1
9	2175	1004	1
9	2184	1008	1
9	2193	1012	1
9	2203	1016	1
9	2208	1020	1
9	2218	1024	1
9	2228	1028	1
9	2238	1032	1
9	2249	1036	1
9	2254	1040	1
9	2264	1044	1
9	2275	1048	1
9	2286	1052	1
9	2296	1056	1
9	2301	1060	1
9	2310	1064	1
9	2331	1072	1
9	2341	1076	1
9	2346	1080	1
9	2366	1088	1
9	2375	1092	1
9	2385	1096	1
9	2390	1100	1
9	2399	1104	1
9	2409	1108	1
9	2428	1116	1
9	2433	1120	1
9	2441	1124	1
9	2451	1128	1
9	2462	1132	1
9	2472	1136	1
9	2477	1140	1
9	2485	1144	1
9	2495	1148	1
9	2516	1156	1
9	2521	1160	1
9	2529	1164	1
9	2541	1168	1
9	2550	1172	1
9	2559	1176	1
9	2564	1180	1
9	2572	1184	1
9	2582	1188	1
9	2593	1192	1
9	2603	1196	1
9	2608	1200	1
9	2616	1204	1
9	2626	1208	1
9	2636	1212	1
9	2647	1216	1
9	2652	1220	1
9	2660	1224	1
9	2669	1228	1
9	2678	1232	1
9	2688	1236	1
9	2693	1240	1
9	2704	1244	1
9	2714	1248	1
9	2733	1256	1
9	2738	1260	1
9	2747	1264	1
9	2759	1268	1
9	2768	1272	1
9	2777	1276	1
9	2782	1280	1
9	2790	1284	1
9	2800	1288	1
9	2810	1292	1
9	2819	1296	1
9	2824	1300	1
9	2832	1304	1
9	2841	1308	1
9	2851	1312	1
9	2862	1316	1
9	2867	1320	1
9	2877	1324	1
[...]
10	7703	3528	1
10	7714	3532	1
10	7724	3536	1
10	7729	3540	1
10	7737	3544	1
10	7747	3548	1
10	7758	3552	1
10	7768	3556	1
10	7773	3560	1
10	7781	3564	1
10	7790	3568	1
10	7799	3572	1
10	7809	3576	1
10	7814	3580	1
10	7824	3584	1
10	7834	3588	1
10	7844	3592	1
10	7861	3600	1
11	56	28	1
11	65	32	1
11	74	36	1
11	79	40	1
11	89	44	1
11	98	48	1
11	108	52	1
11	123	60	1
11	131	64	1
11	141	68	1
11	160	76	1
11	165	80	1
11	175	84	1
11	184	88	1
11	195	92	1
11	204	96	1
11	209	100	1
11	217	104	1
11	226	108	1
11	236	112	1
11	246	116	1
11	251	120	1
11	261	124	1
11	270	128	1
11	279	132	1
11	288	136	1
11	293	140	1
11	302	144	1
11	312	148	1
11	321	152	1
11	330	156	1
11	335	160	1
11	345	164	1
11	356	168	1
11	365	172	1
11	374	176	1
11	379	180	1
11	387	184	1
11	396	188	1
11	406	192	1
11	416	196	1
11	421	200	1
11	429	204	1
11	439	208	1
11	459	216	1
11	464	220	1
11	494	232	1
11	510	240	1
11	530	248	1
11	540	252	1
11	550	256	1
11	555	260	1
11	563	264	1
11	572	268	1
11	583	272	1
11	593	276	1
11	598	280	1
11	607	284	1
11	617	288	1
11	628	292	1
11	638	296	1
11	643	300	1
11	651	304	1
11	660	308	1
11	669	312	1
11	680	316	1
11	685	320	1
11	693	324	1
11	702	328	1
11	711	332	1
11	721	336	1
11	726	340	1
11	735	344	1
11	744	348	1
11	753	352	1
11	763	356	1
11	768	360	1
11	777	364	1
11	787	368	1
11	799	372	1
11	808	376	1
11	813	380	1
11	821	384	1
11	830	388	1
11	840	392	1
11	850	396	1
11	855	400	1
11	864	404	1
11	874	408	1
11	884	412	1
11	895	416	1
11	900	420	1
11	909	424	1
11	919	428	1
11	929	432	1
11	939	436	1
11	944	440	1
11	965	448	1
11	977	452	1
11	986	456	1
11	991	460	1
11	1000	464	1
11	1011	468	1
11	1021	472	1
11	1031	476	1
11	1036	480	1
11	1045	484	1
11	1055	488	1
11	1065	492	1
11	1076	496	1
11	1081	500	1
11	1089	504	1
11	1098	508	1
11	1108	512	1
11	1118	516	1
11	1123	520	1
11	1134	524	1
11	1143	528	1
11	1152	532	1
11	1161	536	1
11	1166	540	1
11	1174	544	1
11	1183	548	1
11	1192	552	1
11	1201	556	1
11	1206	560	1
11	1216	564	1
11	1225	568	1
11	1235	572	1
11	1245	576	1
11	1250	580	1
11	1259	584	1
11	1271	588	1
11	1280	592	1
11	1289	596	1
11	1294	600	1
11	1302	604	1
11	1312	608	1
11	1323	612	1
11	1334	616	1
11	1339	620	1
11	1368	632	1
11	1378	636	1
11	1383	640	1
11	1404	648	1
11	1414	652	1
11	1424	656	1
11	1429	660	1
11	1438	664	1
11	1448	668	1
11	1457	672	1
11	1467	676	1
11	1472	680	1
11	1482	684	1
11	1493	688	1
11	1514	696	1
11	1519	700	1
11	1527	704	1
11	1537	708	1
11	1548	712	1
11	1564	720	1
11	1584	728	1
11	1593	732	1
11	1603	736	1
11	1608	740	1
11	1618	744	1
11	1641	752	1
11	1651	756	1
11	1656	760	1
11	1665	764	1
11	1676	768	1
11	1685	772	1
11	1694	776	1
11	1699	780	1
11	1707	784	1
11	1716	788	1
11	1725	792	1
11	1734	796	1
11	1739	800	1
11	1747	804	1
11	1756	808	1
11	1765	812	1
11	1775	816	1
11	1780	820	1
11	1789	824	1
11	1799	828	1
11	1809	832	1
11	1818	836	1
11	1823	840	1
11	1831	844	1
11	1843	848	1
11	1852	852	1
11	1861	856	1
11	1866	860	1
11	1874	864	1
11	1883	868	1
11	1892	872	1
11	1902	876	1
11	1907	880	1
11	1916	884	1
11	1926	888	1
11	1937	892	1
11	1952	900	1
11	1962	904	1
11	1972	908	1
11	1982	912	1
11	1992	916	1
11	1997	920	1
11	2006	924	1
11	2015	928	1
11	2024	932	1
11	2034	936	1
11	2039	940	1
11	2059	948	1
11	2068	952	1
11	2078	956	1
11	2083	960	1
11	2101	968	1
11	2112	972	1
11	2121	976	1
11	2126	980	1
11	2134	984	1
11	2143	988	1
11	2153	992	1
11	2163	996	1
11	2168	1000	1
11	2176	1004	1
11	2185	1008	1
11	2194	1012	1
11	2204	1016	1
11	2209	1020	1
11	2239	1032	1
11	2255	1040	1
11	2297	1056	1
11	2302	1060	1
11	2311	1064	1
11	2322	1068	1
11	2342	1076	1
11	2347	1080	1
11	2358	1084	1
11	2367	1088	1
11	2376	1092	1
11	2386	1096	1
11	2391	1100	1
11	2410	1108	1
11	2420	1112	1
11	2429	1116	1
11	2434	1120	1
11	2442	1124	1
11	2452	1128	1
11	2463	1132	1
11	2473	1136	1
11	2478	1140	1
11	2486	1144	1
11	2496	1148	1
11	2507	1152	1
11	2517	1156	1
11	2522	1160	1
11	2530	1164	1
11	2542	1168	1
11	2551	1172	1
11	2560	1176	1
11	2565	1180	1
11	2573	1184	1
11	2583	1188	1
11	2604	1196	1
11	2609	1200	1
11	2617	1204	1
11	2627	1208	1
11	2637	1212	1
11	2648	1216	1
11	2653	1220	1
11	2661	1224	1
11	2670	1228	1
11	2679	1232	1
11	2689	1236	1
11	2694	1240	1
11	2705	1244	1
11	2715	1248	1
11	2725	1252	1
11	2734	1256	1
11	2739	1260	1
11	2748	1264	1
11	2769	1272	1
11	2778	1276	1
11	2783	1280	1
11	2791	1284	1
11	2801	1288	1
11	2820	1296	1
11	2825	1300	1
11	2833	1304	1
11	2842	1308	1
11	2852	1312	1
11	2863	1316	1
11	2868	1320	1
11	2888	1328	1
11	2898	1332	1
11	2909	1336	1
11	2914	1340	1
11	2925	1344	1
11	2934	1348	1
11	2943	1352	1
11	2953	1356	1
11	2958	1360	1
11	2967	1364	1
11	2977	1368	1
11	2988	1372	1
11	2998	1376	1
11	3003	1380	1
11	3012	1384	1
11	3023	1388	1
11	3044	1396	1
11	3049	1400	1
11	3059	1404	1
11	3068	1408	1
11	3077	1412	1
11	3086	1416	1
11	3091	1420	1
11	3099	1424	1
11	3109	1428	1
11	3121	1432	1
11	3130	1436	1
11	3135	1440	1
11	3143	1444	1
11	3153	1448	1
11	3164	1452	1
11	3174	1456	1
11	3179	1460	1
11	3187	1464	1
11	3197	1468	1
11	3208	1472	1
11	3218	1476	1
11	3223	1480	1
11	3231	1484	1
11	3241	1488	1
11	3254	1492	1
11	3263	1496	1
11	3268	1500	1
11	3276	1504	1
11	3285	1508	1
11	3294	1512	1
11	3303	1516	1
11	3308	1520	1
11	3318	1524	1
11	3327	1528	1
11	3338	1532	1
11	3347	1536	1
11	3352	1540	1
11	3360	1544	1
11	3369	1548	1
11	3378	1552	1
11	3387	1556	1
11	3392	1560	1
11	3401	1564	1
11	3411	1568	1
11	3420	1572	1
11	3430	1576	1
11	3435	1580	1
11	3445	1584	1
11	3457	1588	1
11	3466	1592	1
11	3476	1596	1
11	3481	1600	1
11	3491	1604	1
11	3501	1608	1
11	3511	1612	1
11	3523	1616	1
11	3528	1620	1
11	3536	1624	1
11	3545	1628	1
11	3554	1632	1
11	3565	1636	1
11	3570	1640	1
11	3578	1644	1
11	3587	1648	1
11	3596	1652	1
11	3607	1656	1
11	3612	1660	1
11	3620	1664	1
11	3629	1668	1
11	3638	1672	1
11	3647	1676	1
11	3652	1680	1
11	3660	1684	1
11	3669	1688	1
11	3679	1692	1
11	3690	1696	1
11	3695	1700	1
11	3705	1704	1
11	3717	1708	1
11	3726	1712	1
11	3735	1716	1
11	3740	1720	1
11	3749	1724	1
11	3760	1728	1
11	3772	1732	1
11	3781	1736	1
11	3786	1740	1
11	3794	1744	1
11	3804	1748	1
11	3823	1756	1
11	3828	1760	1
11	3837	1764	1
11	3848	1768	1
11	3867	1776	1
11	3872	1780	1
11	3883	1784	1
11	3893	1788	1
11	3912	1796	1
11	3917	1800	1
11	3925	1804	1
11	3934	1808	1
11	3944	1812	1
11	3959	1820	1
11	3968	1824	1
11	4000	1836	1
11	4005	1840	1
11	4013	1844	1
11	4022	1848	1
11	4031	1852	1
11	4041	1856	1
11	4046	1860	1
11	4056	1864	1
11	4067	1868	1
11	4090	1876	1
11	4095	1880	1
11	4103	1884	1
11	4113	1888	1
11	4133	1896	1
11	4138	1900	1
11	4147	1904	1
11	4157	1908	1
11	4167	1912	1
11	4177	1916	1
11	4182	1920	1
11	4192	1924	1
11	4211	1932	1
11	4222	1936	1
11	4227	1940	1
11	4236	1944	1
11	4247	1948	1
11	4257	1952	1
11	4267	1956	1
11	4272	1960	1
11	4281	1964	1
11	4290	1968	1
11	4300	1972	1
11	4310	1976	1
11	4315	1980	1
11	4323	1984	1
11	4334	1988	1
11	4343	1992	1
11	4352	1996	1
11	4357	2000	1
11	4365	2004	1
11	4376	2008	1
11	4385	2012	1
11	4394	2016	1
11	4399	2020	1
11	4407	2024	1
11	4417	2028	1
11	4427	2032	1
11	4436	2036	1
11	4441	2040	1
11	4451	2044	1
11	4461	2048	1
11	4480	2056	1
11	4485	2060	1
11	4493	2064	1
11	4502	2068	1
11	4511	2072	1
11	4520	2076	1
11	4525	2080	1
11	4533	2084	1
11	4543	2088	1
11	4565	2096	1
11	4570	2100	1
11	4578	2104	1
11	4588	2108	1
11	4609	2116	1
11	4614	2120	1
11	4622	2124	1
11	4631	2128	1
11	4640	2132	1
11	4649	2136	1
11	4654	2140	1
11	4662	2144	1
11	4672	2148	1
11	4698	2160	1
11	4706	2164	1
11	4715	2168	1
11	4724	2172	1
11	4733	2176	1
11	4738	2180	1
11	4746	2184	1
11	4756	2188	1
11	4766	2192	1
11	4776	2196	1
11	4781	2200	1
11	4791	2204	1
11	4813	2212	1
11	4825	2216	1
11	4830	2220	1
11	4838	2224	1
11	4848	2228	1
11	4868	2236	1
11	4873	2240	1
11	4883	2244	1
11	4902	2252	1
11	4912	2256	1
11	4917	2260	1
11	4927	2264	1
11	4937	2268	1
11	4948	2272	1
11	4957	2276	1
11	4962	2280	1
11	4970	2284	1
11	4979	2288	1
11	4988	2292	1
11	4997	2296	1
11	5002	2300	1
11	5012	2304	1
11	5021	2308	1
11	5030	2312	1
11	5040	2316	1
11	5045	2320	1
11	5054	2324	1
11	5063	2328	1
11	5072	2332	1
11	5082	2336	1
11	5087	2340	1
11	5098	2344	1
11	5108	2348	1
11	5119	2352	1
11	5129	2356	1
11	5134	2360	1
11	5142	2364	1
11	5151	2368	1
11	5161	2372	1
11	5171	2376	1
11	5176	2380	1
11	5184	2384	1
11	5196	2388	1
11	5205	2392	1
11	5214	2396	1
11	5219	2400	1
11	5227	2404	1
11	5236	2408	1
11	5245	2412	1
11	5255	2416	1
11	5260	2420	1
11	5281	2428	1
11	5292	2432	1
11	5304	2436	1
11	5309	2440	1
11	5317	2444	1
11	5327	2448	1
11	5337	2452	1
11	5346	2456	1
11	5351	2460	1
11	5360	2464	1
11	5370	2468	1
11	5379	2472	1
11	5388	2476	1
11	5393	2480	1
11	5402	2484	1
11	5412	2488	1
11	5422	2492	1
11	5433	2496	1
11	5438	2500	1
11	5448	2504	1
11	5460	2508	1
11	5469	2512	1
11	5480	2516	1
11	5485	2520	1
11	5493	2524	1
11	5502	2528	1
11	5511	2532	1
11	5521	2536	1
11	5526	2540	1
11	5535	2544	1
11	5544	2548	1
11	5554	2552	1
11	5564	2556	1
11	5569	2560	1
11	5577	2564	1
11	5588	2568	1
11	5598	2572	1
11	5608	2576	1
11	5613	2580	1
11	5621	2584	1
11	5630	2588	1
11	5640	2592	1
11	5655	2600	1
11	5665	2604	1
11	5674	2608	1
11	5683	2612	1
11	5692	2616	1
11	5697	2620	1
11	5705	2624	1
11	5714	2628	1
11	5725	2632	1
11	5735	2636	1
11	5740	2640	1
11	5759	2648	1
11	5778	2656	1
11	5783	2660	1
11	5791	2664	1
11	5800	2668	1
11	5810	2672	1
11	5826	2680	1
11	5836	2684	1
11	5847	2688	1
11	5868	2696	1
11	5873	2700	1
11	5882	2704	1
11	5893	2708	1
11	5905	2712	1
11	5916	2716	1
11	5921	2720	1
11	5929	2724	1
11	5938	2728	1
11	5947	2732	1
11	5957	2736	1
11	5962	2740	1
11	5972	2744	1
11	5984	2748	1
11	5993	2752	1
11	6002	2756	1
11	6007	2760	1
11	6016	2764	1
11	6039	2772	1
11	6049	2776	1
11	6054	2780	1
11	6063	2784	1
11	6072	2788	1
11	6081	2792	1
11	6091	2796	1
11	6096	2800	1
11	6105	2804	1
11	6115	2808	1
11	6125	2812	1
11	6134	2816	1
11	6139	2820	1
11	6147	2824	1
11	6156	2828	1
11	6165	2832	1
11	6174	2836	1
11	6179	2840	1
11	6188	2844	1
11	6209	2852	1
11	6220	2856	1
11	6225	2860	1
11	6233	2864	1
11	6242	2868	1
11	6251	2872	1
11	6261	2876	1
11	6266	2880	1
11	6287	2888	1
11	6297	2892	1
11	6307	2896	1
11	6312	2900	1
11	6330	2908	1
11	6339	2912	1
11	6349	2916	1
11	6354	2920	1
11	6385	2932	1
11	6394	2936	1
11	6399	2940	1
11	6407	2944	1
11	6418	2948	1
11	6428	2952	1
11	6438	2956	1
11	6443	2960	1
11	6452	2964	1
11	6463	2968	1
11	6473	2972	1
11	6482	2976	1
11	6487	2980	1
11	6496	2984	1
11	6518	2992	1
11	6529	2996	1
11	6534	3000	1
11	6543	3004	1
11	6552	3008	1
11	6562	3012	1
11	6573	3016	1
11	6578	3020	1
11	6588	3024	1
11	6599	3028	1
11	6610	3032	1
11	6626	3040	1
11	6636	3044	1
11	6658	3052	1
11	6669	3056	1
11	6674	3060	1
11	6683	3064	1
11	6695	3068	1
11	6704	3072	1
11	6713	3076	1
11	6718	3080	1
11	6727	3084	1
11	6738	3088	1
11	6749	3092	1
11	6761	3096	1
11	6766	3100	1
11	6774	3104	1
11	6783	3108	1
11	6792	3112	1
11	6802	3116	1
11	6807	3120	1
11	6825	3128	1
11	6834	3132	1
11	6843	3136	1
11	6848	3140	1
11	6858	3144	1
11	6868	3148	1
11	6879	3152	1
11	6889	3156	1
11	6894	3160	1
11	6902	3164	1
11	6912	3168	1
11	6931	3176	1
11	6936	3180	1
11	6945	3184	1
11	6964	3192	1
11	6975	3196	1
11	6980	3200	1
11	6988	3204	1
11	6997	3208	1
11	7006	3212	1
11	7015	3216	1
11	7020	3220	1
11	7029	3224	1
11	7040	3228	1
11	7050	3232	1
11	7060	3236	1
11	7065	3240	1
11	7075	3244	1
11	7097	3252	1
11	7108	3256	1
11	7113	3260	1
11	7123	3264	1
11	7135	3268	1
11	7144	3272	1
11	7154	3276	1
11	7159	3280	1
11	7168	3284	1
11	7179	3288	1
11	7188	3292	1
11	7197	3296	1
11	7202	3300	1
11	7211	3304	1
11	7222	3308	1
11	7234	3312	1
11	7244	3316	1
11	7249	3320	1
11	7268	3328	1
11	7278	3332	1
11	7287	3336	1
11	7292	3340	1
11	7301	3344	1
11	7313	3348	1
11	7322	3352	1
11	7331	3356	1
11	7336	3360	1
11	7346	3364	1
11	7355	3368	1
11	7364	3372	1
11	7373	3376	1
11	7378	3380	1
11	7386	3384	1
11	7395	3388	1
11	7405	3392	1
11	7417	3396	1
11	7422	3400	1
11	7430	3404	1
11	7440	3408	1
11	7466	3420	1
11	7475	3424	1
11	7494	3432	1
11	7504	3436	1
11	7509	3440	1
11	7529	3448	1
11	7538	3452	1
11	7547	3456	1
11	7552	3460	1
11	7561	3464	1
11	7582	3472	1
11	7591	3476	1
11	7596	3480	1
11	7605	3484	1
11	7625	3492	1
11	7635	3496	1
11	7640	3500	1
11	7649	3504	1
11	7659	3508	1
11	7670	3512	1
11	7679	3516	1
11	7684	3520	1
11	7692	3524	1
11	7702	3528	1
11	7728	3540	1
11	7736	3544	1
11	7746	3548	1
11	7757	3552	1
11	7767	3556	1
11	7772	3560	1
11	7780	3564	1
11	7789	3568	1
11	7798	3572	1
11	7808	3576	1
11	7813	3580	1
11	7823	3584	1
11	7843	3592	1
11	7855	3596	1
11	7860	3600	1
12	240	115	1
12	306	145	1
12	544	255	1
12	632	295	1
12	729	340	1
12	888	415	1
12	969	450	1
12	1039	480	1
12	1239	575	1
12	2291	1055	1
12	2511	1155	1
12	2902	1335	1
12	2917	1340	1
12	2981	1370	1
12	2992	1375	1
12	3016	1385	1
12	3113	1430	1
12	3405	1565	1
12	3438	1580	1
12	3753	1725	1
12	3764	1730	1
12	3841	1765	1
12	4141	1900	1
12	4240	1945	1
12	4251	1950	1
12	4275	1960	1
12	4304	1975	1
12	4421	2030	1
12	4920	2260	1
12	5112	2350	1
12	5123	2355	1
12	5165	2375	1
12	5296	2435	1
12	5364	2465	1
12	5441	2500	1
12	5452	2505	1
12	5602	2575	1
12	5886	2705	1
12	6057	2780	1
12	6099	2800	1
12	6522	2995	1
12	6537	3000	1
12	6581	3020	1
12	6731	3085	1
12	7044	3230	1
12	7090	3250	1
12	7127	3265	1
12	7847	3595	1
13	240	115	111
13	306	145	137
13	544	255	243
13	632	295	279
13	729	340	320
13	888	415	299
13	969	450	302
13	1039	480	224
13	1239	575	279
13	2291	1055	711
13	2511	1155	739
13	2902	1335	883
13	2917	1340	856
13	2981	1370	794
13	2992	1375	319
13	3016	1385	229
13	3113	1430	94
13	3405	1565	221
13	3438	1580	208
13	3753	1725	349
13	3764	1730	342
13	3841	1765	333
13	4141	1900	332
13	4240	1945	361
13	4251	1950	222
13	4275	1960	228
13	4304	1975	207
13	4421	2030	126
13	4920	2260	312
13	5112	2350	398
13	5123	2355	391
13	5165	2375	399
13	5296	2435	403
13	5364	2465	201
13	5441	2500	148
13	5452	2505	149
13	5602	2575	199
13	5886	2705	269
13	6057	2780	312
13	6099	2800	296
13	6522	2995	487
13	6537	3000	424
13	6581	3020	312
13	6731	3085	301
13	7044	3230	426
13	7090	3250	254
13	7127	3265	261
13	7847	3595	571
14	240	115	1
14	306	145	1
14	544	255	1
14	632	295	1
14	729	340	1
14	888	415	1
14	969	450	1
14	1039	480	1
14	1239	575	1
14	2291	1055	1
14	2511	1155	1
14	2902	1335	1
14	2917	1340	1
14	2981	1370	1
14	2992	1375	1
14	3016	1385	1
14	3113	1430	1
14	3405	1565	1
14	3438	1580	1
14	3753	1725	1
14	3764	1730	1
14	3841	1765	1
14	4141	1900	1
14	4240	1945	1
14	4251	1950	1
14	4275	1960	1
14	4304	1975	1
14	4421	2030	1
14	4920	2260	1
14	5112	2350	1
14	5123	2355	1
14	5165	2375	1
14	5296	2435	1
14	5364	2465	1
14	5441	2500	1
14	5452	2505	1
14	5602	2575	1
14	5886	2705	1
14	6057	2780	1
14	6099	2800	1
14	6522	2995	1
14	6537	3000	1
14	6581	3020	1
14	6731	3085	1
14	7044	3230	1
14	7090	3250	1
14	7127	3265	1
14	7847	3595	1
15	410	195	1
15	791	370	1
15	844	395	1
15	903	420	1
15	1059	490	1
15	1316	610	1
15	1327	615	1
15	1418	655	1
15	1442	665	1
15	1611	740	1
15	1633	750	1
15	1659	760	1
15	1783	820	1
15	1930	890	1
15	1976	910	1
15	2000	920	1
15	2456	1130	1
15	2467	1135	1
15	2598	1195	1
15	2631	1210	1
15	2697	1240	1
15	2856	1315	1
15	3157	1450	1
15	3168	1455	1
15	3201	1470	1
15	3212	1475	1
15	3449	1585	1
15	3515	1615	1
15	3698	1700	1
15	4760	2190	1
15	4784	2200	1
15	4806	2210	1
15	4817	2215	1
15	4876	2240	1
15	4931	2265	1
15	5048	2320	1
15	5285	2430	1
15	5406	2485	1
15	5426	2495	1
15	5829	2680	1
15	5840	2685	1
15	5862	2695	1
15	5976	2745	1
15	6203	2850	1
15	6291	2890	1
15	6379	2930	1
15	6432	2955	1
15	6456	2965	1
15	6467	2970	1
15	6742	3090	1
15	6753	3095	1
15	6872	3150	1
15	6883	3155	1
15	7068	3240	1
15	7162	3280	1
15	7272	3330	1
15	7523	3445	1
15	7653	3505	1
15	7761	3555	1
16	410	195	191
16	791	370	362
16	844	395	383
16	903	420	404
16	1059	490	470
16	1316	610	414
16	1327	615	243
16	1418	655	259
16	1442	665	241
16	1611	740	248
16	1633	750	138
16	1659	760	144
16	1783	820	164
16	1930	890	222
16	1976	910	166
16	2000	920	168
16	2456	1130	366
16	2467	1135	311
16	2598	1195	303
16	2631	1210	298
16	2697	1240	316
16	2856	1315	183
16	3157	1450	314
16	3168	1455	259
16	3201	1470	258
16	3212	1475	231
16	3449	1585	269
16	3515	1615	163
16	3698	1700	244
16	4760	2190	718
16	4784	2200	724
16	4806	2210	622
16	4817	2215	599
16	4876	2240	536
16	4931	2265	73
16	5048	2320	116
16	5285	2430	218
16	5406	2485	269
16	5426	2495	251
16	5829	2680	412
16	5840	2685	361
16	5862	2695	263
16	5976	2745	257
16	6203	2850	354
16	6291	2890	206
16	6379	2930	242
16	6432	2955	259
16	6456	2965	217
16	6467	2970	118
16	6742	3090	198
16	6753	3095	163
16	6872	3150	194
16	6883	3155	187
16	7068	3240	268
16	7162	3280	188
16	7272	3330	234
16	7523	3445	293
16	7653	3505	349
16	7761	3555	311
17	410	195	1
17	791	370	1
17	844	395	1
17	903	420	1
17	1059	490	1
17	1316	610	1
17	1327	615	1
17	1418	655	1
17	1442	665	1
17	1611	740	1
17	1633	750	1
17	1659	760	1
17	1783	820	1
17	1930	890	1
17	1976	910	1
17	2000	920	1
17	2456	1130	1
17	2467	1135	1
17	2598	1195	1
17	2631	1210	1
17	2697	1240	1
17	2856	1315	1
17	3157	1450	1
17	3168	1455	1
17	3201	1470	1
17	3212	1475	1
17	3449	1585	1
17	3515	1615	1
17	3698	1700	1
17	4760	2190	1
17	4784	2200	1
17	4806	2210	1
17	4817	2215	1
17	4876	2240	1
17	4931	2265	1
17	5048	2320	1
17	5285	2430	1
17	5406	2485	1
17	5426	2495	1
17	5829	2680	1
17	5840	2685	1
17	5862	2695	1
17	5976	2745	1
17	6203	2850	1
17	6291	2890	1
17	6379	2930	1
17	6432	2955	1
17	6456	2965	1
17	6467	2970	1
17	6742	3090	1
17	6753	3095	1
17	6872	3150	1
17	6883	3155	1
17	7068	3240	1
17	7162	3280	1
17	7272	3330	1
17	7523	3445	1
17	7653	3505	1
17	7761	3555	1
18	601	280	1
18	621	290	1
18	771	360	1
18	868	405	1
18	923	430	1
18	958	445	1
18	1004	465	1
18	1015	470	1
18	1112	515	1
18	1263	585	1
18	1475	680	1
18	1486	685	1
18	1541	710	1
18	1578	725	1
18	1803	830	1
18	1910	880	1
18	2157	995	1
18	2315	1065	1
18	2350	1080	1
18	2414	1110	1
18	2500	1150	1
18	2719	1250	1
18	2882	1325	1
18	2961	1360	1
18	3038	1395	1
18	3245	1490	1
18	3484	1600	1
18	3495	1605	1
18	3683	1695	1
18	3709	1705	1
18	4049	1860	1
18	4060	1865	1
18	4082	1875	1
18	4161	1910	1
18	4185	1920	1
18	5090	2340	1
18	5274	2425	1
18	5331	2450	1
18	5529	2540	1
18	5558	2555	1
18	5897	2710	1
18	5965	2740	1
18	6031	2770	1
18	6119	2810	1
18	6280	2885	1
18	6511	2990	1
18	6566	3015	1
18	6592	3025	1
18	6603	3030	1
18	6629	3040	1
18	6651	3050	1
18	6662	3055	1
18	6677	3060	1
18	7033	3225	1
18	7101	3255	1
18	7116	3260	1
18	7215	3305	1
18	7226	3310	1
18	7305	3345	1
18	7409	3395	1
18	7629	3495	1
18	7750	3550	1
18	7816	3580	1
19	601	280	276
19	621	290	282
19	771	360	348
19	868	405	389
19	923	430	410
19	958	445	161
19	1004	465	173
19	1015	470	106
19	1112	515	107
19	1263	585	153
19	1475	680	232
19	1486	685	217
19	1541	710	238
19	1578	725	209
19	1803	830	242
19	1910	880	196
19	2157	995	307
19	2315	1065	353
19	2350	1080	352
19	2414	1110	278
19	2500	1150	266
19	2719	1250	254
19	2882	1325	257
19	2961	1360	276
19	3038	1395	283
19	3245	1490	338
19	3484	1600	348
19	3495	1605	277
19	3683	1695	331
19	3709	1705	309
19	4049	1860	368
19	4060	1865	261
19	4082	1875	267
19	4161	1910	214
19	4185	1920	212
19	5090	2340	476
19	5274	2425	557
19	5331	2450	574
19	5529	2540	628
19	5558	2555	631
19	5897	2710	366
19	5965	2740	312
19	6031	2770	318
19	6119	2810	266
19	6280	2885	329
19	6511	2990	278
19	6566	3015	271
19	6592	3025	253
19	6603	3030	218
19	6629	3040	152
19	6651	3050	58
19	6662	3055	39
19	6677	3060	32
19	7033	3225	193
19	7101	3255	211
19	7116	3260	208
19	7215	3305	249
19	7226	3310	246
19	7305	3345	117
19	7409	3395	139
19	7629	3495	231
19	7750	3550	242
19	7816	3580	268
20	601	280	1
20	621	290	1
20	771	360	1
20	868	405	1
20	923	430	1
20	958	445	1
20	1004	465	1
20	1015	470	1
20	1112	515	1
20	1263	585	1
20	1475	680	1
20	1486	685	1
20	1541	710	1
20	1578	725	1
20	1803	830	1
20	1910	880	1
20	2157	995	1
20	2315	1065	1
20	2350	1080	1
20	2414	1110	1
20	2500	1150	1
20	2719	1250	1
20	2882	1325	1
20	2961	1360	1
20	3038	1395	1
20	3245	1490	1
20	3484	1600	1
20	3495	1605	1
20	3683	1695	1
20	3709	1705	1
20	4049	1860	1
20	4060	1865	1
20	4082	1875	1
20	4161	1910	1
20	4185	1920	1
20	5090	2340	1
20	5274	2425	1
20	5331	2450	1
20	5529	2540	1
20	5558	2555	1
20	5897	2710	1
20	5965	2740	1
20	6031	2770	1
20	6119	2810	1
20	6280	2885	1
20	6511	2990	1
20	6566	3015	1
20	6592	3025	1
20	6603	3030	1
20	6629	3040	1
20	6651	3050	1
20	6662	3055	1
20	6677	3060	1
20	7033	3225	1
20	7101	3255	1
20	7116	3260	1
20	7215	3305	1
20	7226	3310	1
20	7305	3345	1
20	7409	3395	1
20	7629	3495	1
20	7750	3550	1
20	7816	3580	1

