version 2
run FourthVerification-5-20201214-15:14:41-220633
attr configname FourthVerification
attr datetime 20201214-15:14:41
attr experiment FourthVerification
attr inifile omnetpp.ini
attr iterationvars "$0=3, $1=0.4"
attr iterationvarsf 3,0.4-
attr measurement "$0=3, $1=0.4"
attr network slottedNetwork
attr processid 220633
attr repetition 0
attr replication #0
attr resultdir results
attr runnumber 5
attr seedset 5
param **.numTransmitters 3
param **.numChannels 1
param **.bufferSize 5
param **.sendProbability 0.4
param **.expMean 4s
param **.timeSlotSize 5s
param **.thresh 20s
param **.deterministicInterarrivalTime true
param **.numTransmitters 1
param **.numChannels 1
param **.bufferSize 5
param **.sendProbability 1
param **.expMean 5s
param **.timeSlotSize 5s
param **.thresh 20s
param **.deterministicInterarrivalTime false

vector 0 slottedNetwork.transmitters[0] numPacketCreated:vector ETV
attr source numPacketCreatedSignal
vector 1 slottedNetwork.transmitters[1] numPacketCreated:vector ETV
attr source numPacketCreatedSignal
vector 2 slottedNetwork.transmitters[2] numPacketCreated:vector ETV
attr source numPacketCreatedSignal
vector 3 slottedNetwork.ch throughput:vector ETV
attr source throughputSignal
vector 4 slottedNetwork.receivers[1] numPacketReceived:vector ETV
attr source numPacketReceivedSignal
vector 5 slottedNetwork.receivers[1] responseTime:vector ETV
attr source responseTimeSignal
vector 6 slottedNetwork.receivers[1] threshold:vector ETV
attr source thresholdSignal
vector 7 slottedNetwork.receivers[0] numPacketReceived:vector ETV
attr source numPacketReceivedSignal
vector 8 slottedNetwork.receivers[0] responseTime:vector ETV
attr source responseTimeSignal
vector 9 slottedNetwork.receivers[0] threshold:vector ETV
attr source thresholdSignal
vector 10 slottedNetwork.transmitters[2] numPacketDiscarded:vector ETV
attr source numPacketDiscardedSignal
vector 11 slottedNetwork.transmitters[0] numPacketDiscarded:vector ETV
attr source numPacketDiscardedSignal
vector 12 slottedNetwork.transmitters[1] numPacketDiscarded:vector ETV
attr source numPacketDiscardedSignal
vector 13 slottedNetwork.receivers[2] numPacketReceived:vector ETV
attr source numPacketReceivedSignal
vector 14 slottedNetwork.receivers[2] responseTime:vector ETV
attr source responseTimeSignal
vector 15 slottedNetwork.receivers[2] threshold:vector ETV
attr source thresholdSignal
0	1	4	1
0	8	8	1
0	16	12	1
0	25	16	1
0	29	20	1
0	39	24	1
0	46	28	1
0	53	32	1
0	60	36	1
0	64	40	1
0	70	44	1
0	80	48	1
0	87	52	1
0	94	56	1
0	98	60	1
0	104	64	1
0	111	68	1
0	118	72	1
0	125	76	1
0	129	80	1
0	136	84	1
0	146	88	1
0	154	92	1
0	163	96	1
0	167	100	1
0	175	104	1
0	183	108	1
0	191	112	1
0	200	116	1
0	204	120	1
0	211	124	1
0	220	128	1
0	227	132	1
0	234	136	1
0	238	140	1
0	245	144	1
0	253	148	1
0	261	152	1
0	270	156	1
0	274	160	1
0	281	164	1
0	289	168	1
0	297	172	1
0	305	176	1
0	309	180	1
0	317	184	1
0	326	188	1
0	335	192	1
0	344	196	1
0	348	200	1
0	355	204	1
0	363	208	1
0	373	212	1
0	380	216	1
0	384	220	1
0	390	224	1
0	399	228	1
0	406	232	1
0	413	236	1
0	417	240	1
0	423	244	1
0	431	248	1
0	440	252	1
0	448	256	1
0	452	260	1
0	458	264	1
0	465	268	1
0	472	272	1
0	480	276	1
0	484	280	1
0	491	284	1
0	499	288	1
0	508	292	1
0	516	296	1
0	520	300	1
0	528	304	1
0	535	308	1
0	542	312	1
0	549	316	1
0	553	320	1
0	559	324	1
0	567	328	1
0	576	332	1
0	585	336	1
0	589	340	1
0	598	344	1
0	605	348	1
0	612	352	1
0	619	356	1
0	623	360	1
0	630	364	1
0	639	368	1
0	647	372	1
0	654	376	1
0	658	380	1
0	666	384	1
0	673	388	1
0	680	392	1
0	688	396	1
0	692	400	1
0	699	404	1
0	706	408	1
0	714	412	1
0	724	416	1
0	728	420	1
0	734	424	1
0	741	428	1
0	748	432	1
0	756	436	1
0	760	440	1
0	767	444	1
0	775	448	1
0	783	452	1
0	790	456	1
0	794	460	1
0	801	464	1
0	810	468	1
0	819	472	1
0	829	476	1
0	833	480	1
0	839	484	1
0	846	488	1
0	854	492	1
0	862	496	1
0	866	500	1
0	873	504	1
0	882	508	1
0	890	512	1
0	900	516	1
0	904	520	1
0	910	524	1
0	917	528	1
0	924	532	1
0	932	536	1
0	936	540	1
0	943	544	1
0	951	548	1
0	960	552	1
0	968	556	1
0	972	560	1
0	978	564	1
0	986	568	1
0	995	572	1
0	1004	576	1
0	1008	580	1
0	1016	584	1
0	1026	588	1
0	1033	592	1
0	1040	596	1
0	1044	600	1
0	1050	604	1
0	1057	608	1
0	1064	612	1
0	1072	616	1
0	1076	620	1
0	1085	624	1
0	1092	628	1
0	1099	632	1
0	1106	636	1
0	1110	640	1
0	1116	644	1
0	1123	648	1
0	1130	652	1
0	1138	656	1
0	1142	660	1
0	1150	664	1
0	1159	668	1
0	1167	672	1
0	1175	676	1
0	1179	680	1
0	1186	684	1
0	1194	688	1
0	1202	692	1
0	1210	696	1
0	1214	700	1
0	1221	704	1
0	1229	708	1
0	1238	712	1
0	1247	716	1
0	1251	720	1
0	1259	724	1
0	1268	728	1
0	1277	732	1
0	1287	736	1
0	1291	740	1
0	1297	744	1
0	1304	748	1
0	1311	752	1
0	1319	756	1
0	1323	760	1
0	1330	764	1
0	1339	768	1
0	1346	772	1
0	1353	776	1
0	1357	780	1
0	1364	784	1
0	1372	788	1
0	1380	792	1
0	1390	796	1
0	1394	800	1
0	1400	804	1
0	1407	808	1
0	1415	812	1
0	1425	816	1
0	1429	820	1
0	1435	824	1
0	1442	828	1
0	1449	832	1
0	1456	836	1
0	1460	840	1
0	1466	844	1
0	1473	848	1
0	1481	852	1
0	1489	856	1
0	1493	860	1
0	1500	864	1
0	1510	868	1
0	1517	872	1
0	1524	876	1
0	1528	880	1
0	1535	884	1
0	1544	888	1
0	1552	892	1
0	1561	896	1
0	1565	900	1
0	1571	904	1
0	1578	908	1
0	1586	912	1
0	1594	916	1
0	1598	920	1
0	1604	924	1
0	1612	928	1
0	1622	932	1
0	1630	936	1
0	1634	940	1
0	1641	944	1
0	1649	948	1
0	1657	952	1
0	1664	956	1
0	1668	960	1
0	1675	964	1
0	1684	968	1
0	1693	972	1
0	1701	976	1
0	1705	980	1
0	1712	984	1
0	1721	988	1
0	1731	992	1
0	1739	996	1
0	1743	1000	1
0	1750	1004	1
0	1757	1008	1
0	1765	1012	1
0	1774	1016	1
0	1778	1020	1
0	1786	1024	1
0	1795	1028	1
0	1805	1032	1
0	1813	1036	1
0	1817	1040	1
0	1824	1044	1
0	1832	1048	1
0	1841	1052	1
0	1849	1056	1
0	1853	1060	1
0	1860	1064	1
0	1869	1068	1
0	1877	1072	1
0	1885	1076	1
0	1889	1080	1
0	1898	1084	1
0	1905	1088	1
0	1912	1092	1
0	1919	1096	1
0	1923	1100	1
0	1930	1104	1
0	1940	1108	1
0	1947	1112	1
0	1954	1116	1
0	1958	1120	1
0	1964	1124	1
0	1971	1128	1
0	1980	1132	1
0	1987	1136	1
0	1991	1140	1
0	1997	1144	1
0	2004	1148	1
0	2011	1152	1
0	2018	1156	1
0	2022	1160	1
0	2028	1164	1
0	2036	1168	1
0	2045	1172	1
0	2054	1176	1
0	2058	1180	1
0	2067	1184	1
0	2074	1188	1
0	2082	1192	1
0	2090	1196	1
0	2094	1200	1
0	2100	1204	1
0	2109	1208	1
0	2117	1212	1
0	2126	1216	1
0	2130	1220	1
0	2138	1224	1
0	2147	1228	1
0	2156	1232	1
0	2165	1236	1
0	2169	1240	1
0	2176	1244	1
0	2184	1248	1
0	2194	1252	1
0	2201	1256	1
0	2205	1260	1
0	2211	1264	1
0	2218	1268	1
0	2225	1272	1
0	2232	1276	1
0	2236	1280	1
0	2242	1284	1
0	2250	1288	1
0	2260	1292	1
0	2267	1296	1
0	2271	1300	1
0	2277	1304	1
0	2284	1308	1
0	2291	1312	1
0	2298	1316	1
0	2302	1320	1
0	2308	1324	1
0	2316	1328	1
0	2324	1332	1
0	2331	1336	1
0	2335	1340	1
0	2342	1344	1
0	2352	1348	1
0	2360	1352	1
0	2368	1356	1
0	2372	1360	1
0	2378	1364	1
0	2386	1368	1
0	2394	1372	1
0	2403	1376	1
0	2407	1380	1
0	2413	1384	1
0	2420	1388	1
0	2428	1392	1
0	2437	1396	1
0	2441	1400	1
0	2448	1404	1
0	2455	1408	1
0	2463	1412	1
0	2472	1416	1
0	2476	1420	1
0	2484	1424	1
0	2493	1428	1
0	2501	1432	1
0	2509	1436	1
0	2513	1440	1
0	2520	1444	1
0	2527	1448	1
0	2535	1452	1
0	2544	1456	1
0	2548	1460	1
0	2556	1464	1
0	2565	1468	1
0	2574	1472	1
0	2582	1476	1
0	2586	1480	1
0	2592	1484	1
0	2599	1488	1
0	2607	1492	1
0	2615	1496	1
0	2619	1500	1
0	2626	1504	1
0	2636	1508	1
0	2643	1512	1
0	2650	1516	1
0	2654	1520	1
0	2660	1524	1
0	2668	1528	1
0	2678	1532	1
0	2685	1536	1
0	2689	1540	1
0	2695	1544	1
0	2703	1548	1
0	2712	1552	1
0	2720	1556	1
0	2724	1560	1
0	2731	1564	1
0	2739	1568	1
0	2746	1572	1
0	2753	1576	1
0	2757	1580	1
0	2765	1584	1
0	2773	1588	1
0	2781	1592	1
0	2789	1596	1
0	2793	1600	1
0	2800	1604	1
0	2807	1608	1
0	2815	1612	1
0	2824	1616	1
0	2828	1620	1
0	2836	1624	1
0	2845	1628	1
0	2854	1632	1
0	2862	1636	1
0	2866	1640	1
0	2872	1644	1
0	2881	1648	1
0	2888	1652	1
0	2895	1656	1
0	2899	1660	1
0	2906	1664	1
0	2916	1668	1
0	2923	1672	1
0	2930	1676	1
0	2934	1680	1
0	2940	1684	1
0	2948	1688	1
0	2958	1692	1
0	2965	1696	1
0	2969	1700	1
0	2975	1704	1
0	2982	1708	1
0	2990	1712	1
0	2998	1716	1
0	3002	1720	1
0	3010	1724	1
0	3017	1728	1
0	3024	1732	1
0	3031	1736	1
0	3035	1740	1
0	3042	1744	1
0	3052	1748	1
0	3059	1752	1
0	3067	1756	1
0	3071	1760	1
0	3078	1764	1
0	3085	1768	1
0	3092	1772	1
0	3100	1776	1
0	3104	1780	1
0	3111	1784	1
0	3118	1788	1
0	3126	1792	1
0	3134	1796	1
0	3138	1800	1
0	3144	1804	1
0	3152	1808	1
0	3161	1812	1
0	3170	1816	1
0	3174	1820	1
0	3183	1824	1
0	3190	1828	1
0	3197	1832	1
0	3205	1836	1
0	3209	1840	1
0	3216	1844	1
0	3223	1848	1
0	3232	1852	1
0	3239	1856	1
0	3243	1860	1
0	3249	1864	1
0	3257	1868	1
0	3266	1872	1
0	3275	1876	1
0	3279	1880	1
0	3286	1884	1
0	3295	1888	1
0	3302	1892	1
0	3309	1896	1
0	3313	1900	1
0	3319	1904	1
0	3326	1908	1
0	3334	1912	1
0	3342	1916	1
0	3346	1920	1
0	3354	1924	1
0	3361	1928	1
0	3369	1932	1
0	3378	1936	1
0	3382	1940	1
0	3390	1944	1
0	3399	1948	1
0	3408	1952	1
0	3417	1956	1
0	3421	1960	1
0	3428	1964	1
0	3435	1968	1
0	3444	1972	1
0	3451	1976	1
0	3455	1980	1
0	3461	1984	1
0	3468	1988	1
0	3476	1992	1
0	3484	1996	1
0	3488	2000	1
0	3494	2004	1
0	3501	2008	1
0	3509	2012	1
0	3517	2016	1
0	3521	2020	1
0	3527	2024	1
0	3535	2028	1
0	3543	2032	1
0	3551	2036	1
0	3555	2040	1
0	3564	2044	1
0	3572	2048	1
0	3581	2052	1
0	3589	2056	1
0	3593	2060	1
0	3599	2064	1
0	3607	2068	1
0	3618	2072	1
0	3625	2076	1
0	3629	2080	1
0	3635	2084	1
0	3642	2088	1
0	3650	2092	1
0	3658	2096	1
0	3662	2100	1
0	3668	2104	1
0	3676	2108	1
0	3685	2112	1
0	3695	2116	1
0	3699	2120	1
0	3705	2124	1
0	3713	2128	1
0	3722	2132	1
0	3731	2136	1
0	3735	2140	1
0	3742	2144	1
0	3750	2148	1
0	3759	2152	1
0	3769	2156	1
0	3773	2160	1
0	3779	2164	1
0	3786	2168	1
0	3794	2172	1
0	3802	2176	1
0	3806	2180	1
0	3814	2184	1
0	3822	2188	1
0	3831	2192	1
0	3839	2196	1
0	3843	2200	1
0	3849	2204	1
0	3857	2208	1
0	3865	2212	1
0	3874	2216	1
0	3878	2220	1
0	3885	2224	1
0	3893	2228	1
0	3900	2232	1
0	3908	2236	1
0	3912	2240	1
0	3919	2244	1
0	3926	2248	1
0	3933	2252	1
0	3940	2256	1
0	3944	2260	1
0	3950	2264	1
0	3957	2268	1
0	3965	2272	1
0	3974	2276	1
0	3978	2280	1
0	3985	2284	1
0	3993	2288	1
0	4002	2292	1
0	4012	2296	1
0	4016	2300	1
0	4022	2304	1
0	4029	2308	1
0	4036	2312	1
0	4045	2316	1
0	4049	2320	1
0	4055	2324	1
0	4062	2328	1
0	4069	2332	1
0	4077	2336	1
0	4081	2340	1
0	4088	2344	1
0	4095	2348	1
0	4102	2352	1
0	4111	2356	1
0	4115	2360	1
0	4122	2364	1
0	4130	2368	1
0	4137	2372	1
0	4144	2376	1
0	4148	2380	1
0	4155	2384	1
0	4164	2388	1
0	4173	2392	1
0	4182	2396	1
0	4186	2400	1
0	4194	2404	1
0	4202	2408	1
0	4211	2412	1
0	4219	2416	1
0	4223	2420	1
0	4230	2424	1
0	4237	2428	1
0	4246	2432	1
0	4254	2436	1
0	4258	2440	1
0	4265	2444	1
0	4273	2448	1
0	4281	2452	1
0	4289	2456	1
0	4293	2460	1
0	4302	2464	1
0	4309	2468	1
0	4317	2472	1
0	4326	2476	1
0	4330	2480	1
0	4337	2484	1
0	4344	2488	1
0	4352	2492	1
0	4363	2496	1
0	4367	2500	1
0	4373	2504	1
0	4380	2508	1
0	4387	2512	1
0	4394	2516	1
0	4398	2520	1
0	4404	2524	1
0	4412	2528	1
0	4420	2532	1
0	4428	2536	1
0	4432	2540	1
0	4440	2544	1
0	4449	2548	1
0	4458	2552	1
0	4467	2556	1
0	4471	2560	1
0	4479	2564	1
0	4487	2568	1
0	4495	2572	1
0	4504	2576	1
0	4508	2580	1
0	4515	2584	1
0	4523	2588	1
0	4532	2592	1
0	4540	2596	1
0	4544	2600	1
0	4550	2604	1
0	4558	2608	1
0	4567	2612	1
0	4576	2616	1
0	4580	2620	1
0	4588	2624	1
0	4596	2628	1
0	4604	2632	1
0	4614	2636	1
0	4618	2640	1
0	4624	2644	1
0	4631	2648	1
0	4640	2652	1
0	4647	2656	1
0	4651	2660	1
0	4657	2664	1
0	4664	2668	1
0	4671	2672	1
0	4679	2676	1
0	4683	2680	1
0	4692	2684	1
0	4699	2688	1
0	4706	2692	1
0	4713	2696	1
0	4717	2700	1
0	4724	2704	1
0	4732	2708	1
0	4740	2712	1
0	4748	2716	1
0	4752	2720	1
0	4759	2724	1
0	4767	2728	1
0	4774	2732	1
0	4783	2736	1
0	4787	2740	1
0	4793	2744	1
0	4801	2748	1
0	4809	2752	1
0	4817	2756	1
0	4821	2760	1
0	4829	2764	1
0	4838	2768	1
0	4847	2772	1
0	4855	2776	1
0	4859	2780	1
0	4865	2784	1
0	4872	2788	1
0	4880	2792	1
0	4888	2796	1
0	4892	2800	1
0	4899	2804	1
0	4908	2808	1
0	4919	2812	1
0	4926	2816	1
0	4930	2820	1
0	4936	2824	1
0	4943	2828	1
0	4951	2832	1
0	4960	2836	1
0	4964	2840	1
0	4973	2844	1
0	4980	2848	1
0	4987	2852	1
0	4997	2856	1
0	5001	2860	1
0	5007	2864	1
0	5014	2868	1
0	5021	2872	1
0	5029	2876	1
0	5033	2880	1
0	5040	2884	1
0	5047	2888	1
0	5054	2892	1
0	5061	2896	1
0	5065	2900	1
0	5071	2904	1
0	5080	2908	1
0	5087	2912	1
0	5095	2916	1
0	5099	2920	1
0	5107	2924	1
0	5115	2928	1
0	5122	2932	1
0	5130	2936	1
0	5134	2940	1
0	5142	2944	1
0	5151	2948	1
0	5160	2952	1
0	5170	2956	1
0	5174	2960	1
0	5180	2964	1
0	5187	2968	1
0	5195	2972	1
0	5204	2976	1
0	5208	2980	1
0	5216	2984	1
0	5227	2988	1
0	5234	2992	1
0	5241	2996	1
0	5245	3000	1
0	5251	3004	1
0	5258	3008	1
0	5265	3012	1
0	5272	3016	1
0	5276	3020	1
0	5284	3024	1
0	5291	3028	1
0	5298	3032	1
0	5307	3036	1
0	5311	3040	1
0	5317	3044	1
0	5324	3048	1
0	5331	3052	1
0	5338	3056	1
0	5342	3060	1
0	5349	3064	1
0	5358	3068	1
0	5368	3072	1
0	5375	3076	1
0	5379	3080	1
0	5385	3084	1
0	5392	3088	1
0	5401	3092	1
0	5408	3096	1
0	5412	3100	1
0	5418	3104	1
0	5426	3108	1
0	5435	3112	1
0	5444	3116	1
0	5448	3120	1
0	5456	3124	1
0	5465	3128	1
0	5475	3132	1
0	5482	3136	1
0	5486	3140	1
0	5492	3144	1
0	5501	3148	1
0	5508	3152	1
0	5515	3156	1
0	5519	3160	1
0	5525	3164	1
0	5532	3168	1
0	5540	3172	1
0	5548	3176	1
0	5552	3180	1
0	5558	3184	1
0	5565	3188	1
0	5572	3192	1
0	5581	3196	1
0	5585	3200	1
0	5591	3204	1
0	5598	3208	1
0	5606	3212	1
0	5614	3216	1
0	5618	3220	1
0	5625	3224	1
0	5633	3228	1
0	5641	3232	1
0	5649	3236	1
0	5653	3240	1
0	5660	3244	1
0	5669	3248	1
0	5677	3252	1
0	5685	3256	1
0	5689	3260	1
0	5697	3264	1
0	5706	3268	1
0	5715	3272	1
0	5725	3276	1
0	5729	3280	1
0	5735	3284	1
0	5742	3288	1
0	5749	3292	1
0	5757	3296	1
0	5761	3300	1
0	5768	3304	1
0	5776	3308	1
0	5785	3312	1
0	5793	3316	1
0	5797	3320	1
0	5805	3324	1
0	5813	3328	1
0	5822	3332	1
0	5830	3336	1
0	5834	3340	1
0	5840	3344	1
0	5848	3348	1
0	5857	3352	1
0	5867	3356	1
0	5871	3360	1
0	5878	3364	1
0	5886	3368	1
0	5894	3372	1
0	5903	3376	1
0	5907	3380	1
0	5916	3384	1
0	5923	3388	1
0	5930	3392	1
0	5937	3396	1
0	5941	3400	1
0	5947	3404	1
0	5956	3408	1
0	5964	3412	1
0	5972	3416	1
0	5976	3420	1
0	5982	3424	1
0	5989	3428	1
0	5997	3432	1
0	6005	3436	1
0	6009	3440	1
0	6016	3444	1
0	6025	3448	1
0	6034	3452	1
0	6044	3456	1
0	6048	3460	1
0	6054	3464	1
0	6061	3468	1
0	6068	3472	1
0	6075	3476	1
0	6079	3480	1
0	6085	3484	1
0	6092	3488	1
0	6099	3492	1
0	6106	3496	1
0	6110	3500	1
0	6116	3504	1
0	6123	3508	1
0	6130	3512	1
0	6138	3516	1
0	6142	3520	1
0	6149	3524	1
0	6157	3528	1
0	6166	3532	1
0	6176	3536	1
0	6180	3540	1
0	6187	3544	1
0	6195	3548	1
0	6202	3552	1
0	6211	3556	1
0	6215	3560	1
0	6221	3564	1
0	6228	3568	1
0	6236	3572	1
0	6244	3576	1
0	6248	3580	1
0	6254	3584	1
0	6261	3588	1
0	6268	3592	1
0	6276	3596	1
0	6280	3600	1
1	2	4	1
1	9	8	1
1	17	12	1
1	26	16	1
1	30	20	1
1	40	24	1
1	47	28	1
1	54	32	1
1	61	36	1
1	65	40	1
1	71	44	1
1	81	48	1
1	88	52	1
1	95	56	1
1	99	60	1
1	105	64	1
1	112	68	1
1	119	72	1
1	126	76	1
1	130	80	1
1	137	84	1
1	147	88	1
1	155	92	1
1	164	96	1
1	168	100	1
1	176	104	1
1	184	108	1
1	192	112	1
1	201	116	1
1	205	120	1
1	212	124	1
1	221	128	1
1	228	132	1
1	235	136	1
1	239	140	1
1	246	144	1
1	254	148	1
1	262	152	1
1	271	156	1
1	275	160	1
1	282	164	1
1	290	168	1
1	298	172	1
1	306	176	1
1	310	180	1
1	318	184	1
1	327	188	1
1	336	192	1
1	345	196	1
1	349	200	1
1	356	204	1
1	364	208	1
1	374	212	1
1	381	216	1
1	385	220	1
1	391	224	1
1	400	228	1
1	407	232	1
1	414	236	1
1	418	240	1
1	424	244	1
1	432	248	1
1	441	252	1
1	449	256	1
1	453	260	1
1	459	264	1
1	466	268	1
1	473	272	1
1	481	276	1
1	485	280	1
1	492	284	1
1	500	288	1
1	509	292	1
1	517	296	1
1	521	300	1
1	529	304	1
1	536	308	1
1	543	312	1
1	550	316	1
1	554	320	1
1	560	324	1
1	568	328	1
1	577	332	1
1	586	336	1
1	590	340	1
1	599	344	1
1	606	348	1
1	613	352	1
1	620	356	1
1	624	360	1
1	631	364	1
1	640	368	1
1	648	372	1
1	655	376	1
1	659	380	1
1	667	384	1
1	674	388	1
1	681	392	1
1	689	396	1
1	693	400	1
1	700	404	1
1	707	408	1
1	715	412	1
1	725	416	1
1	729	420	1
1	735	424	1
1	742	428	1
1	749	432	1
1	757	436	1
1	761	440	1
1	768	444	1
1	776	448	1
1	784	452	1
1	791	456	1
1	795	460	1
1	802	464	1
1	811	468	1
1	820	472	1
1	830	476	1
1	834	480	1
1	840	484	1
1	847	488	1
1	855	492	1
1	863	496	1
1	867	500	1
1	874	504	1
1	883	508	1
1	891	512	1
1	901	516	1
1	905	520	1
1	911	524	1
1	918	528	1
1	925	532	1
1	933	536	1
1	937	540	1
1	944	544	1
1	952	548	1
1	961	552	1
1	969	556	1
1	973	560	1
1	979	564	1
1	987	568	1
1	996	572	1
1	1005	576	1
1	1009	580	1
1	1017	584	1
1	1027	588	1
1	1034	592	1
1	1041	596	1
1	1045	600	1
1	1051	604	1
1	1058	608	1
1	1065	612	1
1	1073	616	1
1	1077	620	1
1	1086	624	1
1	1093	628	1
1	1100	632	1
1	1107	636	1
1	1111	640	1
1	1117	644	1
1	1124	648	1
1	1131	652	1
1	1139	656	1
1	1143	660	1
1	1151	664	1
1	1160	668	1
1	1168	672	1
1	1176	676	1
1	1180	680	1
1	1187	684	1
1	1195	688	1
1	1203	692	1
1	1211	696	1
1	1215	700	1
1	1222	704	1
1	1230	708	1
1	1239	712	1
1	1248	716	1
1	1252	720	1
1	1260	724	1
1	1269	728	1
1	1278	732	1
1	1288	736	1
1	1292	740	1
1	1298	744	1
1	1305	748	1
1	1312	752	1
1	1320	756	1
1	1324	760	1
1	1331	764	1
1	1340	768	1
1	1347	772	1
1	1354	776	1
1	1358	780	1
1	1365	784	1
1	1373	788	1
1	1381	792	1
1	1391	796	1
1	1395	800	1
1	1401	804	1
1	1408	808	1
1	1416	812	1
1	1426	816	1
1	1430	820	1
1	1436	824	1
1	1443	828	1
1	1450	832	1
1	1457	836	1
1	1461	840	1
1	1467	844	1
1	1474	848	1
1	1482	852	1
1	1490	856	1
1	1494	860	1
1	1501	864	1
1	1511	868	1
1	1518	872	1
1	1525	876	1
1	1529	880	1
1	1536	884	1
1	1545	888	1
1	1553	892	1
1	1562	896	1
1	1566	900	1
1	1572	904	1
1	1579	908	1
1	1587	912	1
1	1595	916	1
1	1599	920	1
1	1605	924	1
1	1613	928	1
1	1623	932	1
1	1631	936	1
1	1635	940	1
1	1642	944	1
1	1650	948	1
1	1658	952	1
1	1665	956	1
1	1669	960	1
1	1676	964	1
1	1685	968	1
1	1694	972	1
1	1702	976	1
1	1706	980	1
1	1713	984	1
1	1722	988	1
1	1732	992	1
1	1740	996	1
1	1744	1000	1
1	1751	1004	1
1	1758	1008	1
1	1766	1012	1
1	1775	1016	1
1	1779	1020	1
1	1787	1024	1
1	1796	1028	1
1	1806	1032	1
1	1814	1036	1
1	1818	1040	1
1	1825	1044	1
1	1833	1048	1
1	1842	1052	1
1	1850	1056	1
1	1854	1060	1
1	1861	1064	1
1	1870	1068	1
1	1878	1072	1
1	1886	1076	1
1	1890	1080	1
1	1899	1084	1
1	1906	1088	1
1	1913	1092	1
1	1920	1096	1
1	1924	1100	1
1	1931	1104	1
1	1941	1108	1
1	1948	1112	1
1	1955	1116	1
1	1959	1120	1
1	1965	1124	1
1	1972	1128	1
1	1981	1132	1
1	1988	1136	1
1	1992	1140	1
1	1998	1144	1
1	2005	1148	1
1	2012	1152	1
1	2019	1156	1
1	2023	1160	1
1	2029	1164	1
1	2037	1168	1
1	2046	1172	1
1	2055	1176	1
1	2059	1180	1
1	2068	1184	1
1	2075	1188	1
1	2083	1192	1
1	2091	1196	1
1	2095	1200	1
1	2101	1204	1
1	2110	1208	1
1	2118	1212	1
1	2127	1216	1
1	2131	1220	1
1	2139	1224	1
1	2148	1228	1
1	2157	1232	1
1	2166	1236	1
1	2170	1240	1
1	2177	1244	1
1	2185	1248	1
1	2195	1252	1
1	2202	1256	1
1	2206	1260	1
1	2212	1264	1
1	2219	1268	1
1	2226	1272	1
1	2233	1276	1
1	2237	1280	1
1	2243	1284	1
1	2251	1288	1
1	2261	1292	1
1	2268	1296	1
1	2272	1300	1
1	2278	1304	1
1	2285	1308	1
1	2292	1312	1
1	2299	1316	1
1	2303	1320	1
1	2309	1324	1
1	2317	1328	1
1	2325	1332	1
1	2332	1336	1
1	2336	1340	1
1	2343	1344	1
1	2353	1348	1
1	2361	1352	1
1	2369	1356	1
1	2373	1360	1
1	2379	1364	1
1	2387	1368	1
1	2395	1372	1
1	2404	1376	1
1	2408	1380	1
1	2414	1384	1
1	2421	1388	1
1	2429	1392	1
1	2438	1396	1
1	2442	1400	1
1	2449	1404	1
1	2456	1408	1
1	2464	1412	1
1	2473	1416	1
1	2477	1420	1
1	2485	1424	1
1	2494	1428	1
1	2502	1432	1
1	2510	1436	1
1	2514	1440	1
1	2521	1444	1
1	2528	1448	1
1	2536	1452	1
1	2545	1456	1
1	2549	1460	1
1	2557	1464	1
1	2566	1468	1
1	2575	1472	1
1	2583	1476	1
1	2587	1480	1
1	2593	1484	1
1	2600	1488	1
1	2608	1492	1
1	2616	1496	1
1	2620	1500	1
1	2627	1504	1
1	2637	1508	1
1	2644	1512	1
1	2651	1516	1
1	2655	1520	1
1	2661	1524	1
1	2669	1528	1
1	2679	1532	1
1	2686	1536	1
1	2690	1540	1
1	2696	1544	1
1	2704	1548	1
1	2713	1552	1
1	2721	1556	1
1	2725	1560	1
1	2732	1564	1
1	2740	1568	1
1	2747	1572	1
1	2754	1576	1
1	2758	1580	1
1	2766	1584	1
1	2774	1588	1
1	2782	1592	1
1	2790	1596	1
1	2794	1600	1
1	2801	1604	1
1	2808	1608	1
1	2816	1612	1
1	2825	1616	1
1	2829	1620	1
1	2837	1624	1
1	2846	1628	1
1	2855	1632	1
1	2863	1636	1
1	2867	1640	1
1	2873	1644	1
1	2882	1648	1
1	2889	1652	1
1	2896	1656	1
1	2900	1660	1
1	2907	1664	1
1	2917	1668	1
1	2924	1672	1
1	2931	1676	1
1	2935	1680	1
1	2941	1684	1
1	2949	1688	1
1	2959	1692	1
1	2966	1696	1
1	2970	1700	1
1	2976	1704	1
1	2983	1708	1
1	2991	1712	1
1	2999	1716	1
1	3003	1720	1
1	3011	1724	1
1	3018	1728	1
1	3025	1732	1
1	3032	1736	1
1	3036	1740	1
1	3043	1744	1
1	3053	1748	1
1	3060	1752	1
1	3068	1756	1
1	3072	1760	1
1	3079	1764	1
1	3086	1768	1
1	3093	1772	1
1	3101	1776	1
1	3105	1780	1
1	3112	1784	1
1	3119	1788	1
1	3127	1792	1
1	3135	1796	1
1	3139	1800	1
1	3145	1804	1
1	3153	1808	1
1	3162	1812	1
1	3171	1816	1
1	3175	1820	1
1	3184	1824	1
1	3191	1828	1
1	3198	1832	1
1	3206	1836	1
1	3210	1840	1
1	3217	1844	1
1	3224	1848	1
1	3233	1852	1
1	3240	1856	1
1	3244	1860	1
1	3250	1864	1
1	3258	1868	1
1	3267	1872	1
1	3276	1876	1
1	3280	1880	1
1	3287	1884	1
1	3296	1888	1
1	3303	1892	1
1	3310	1896	1
1	3314	1900	1
1	3320	1904	1
1	3327	1908	1
1	3335	1912	1
1	3343	1916	1
1	3347	1920	1
1	3355	1924	1
1	3362	1928	1
1	3370	1932	1
1	3379	1936	1
1	3383	1940	1
1	3391	1944	1
1	3400	1948	1
1	3409	1952	1
1	3418	1956	1
1	3422	1960	1
1	3429	1964	1
1	3436	1968	1
1	3445	1972	1
1	3452	1976	1
1	3456	1980	1
1	3462	1984	1
1	3469	1988	1
1	3477	1992	1
1	3485	1996	1
1	3489	2000	1
1	3495	2004	1
1	3502	2008	1
1	3510	2012	1
1	3518	2016	1
1	3522	2020	1
1	3528	2024	1
1	3536	2028	1
1	3544	2032	1
1	3552	2036	1
1	3556	2040	1
1	3565	2044	1
1	3573	2048	1
1	3582	2052	1
1	3590	2056	1
1	3594	2060	1
1	3600	2064	1
1	3608	2068	1
1	3619	2072	1
1	3626	2076	1
1	3630	2080	1
1	3636	2084	1
1	3643	2088	1
1	3651	2092	1
1	3659	2096	1
1	3663	2100	1
1	3669	2104	1
1	3677	2108	1
1	3686	2112	1
1	3696	2116	1
1	3700	2120	1
1	3706	2124	1
1	3714	2128	1
1	3723	2132	1
1	3732	2136	1
1	3736	2140	1
1	3743	2144	1
1	3751	2148	1
1	3760	2152	1
1	3770	2156	1
1	3774	2160	1
1	3780	2164	1
1	3787	2168	1
1	3795	2172	1
1	3803	2176	1
1	3807	2180	1
1	3815	2184	1
1	3823	2188	1
1	3832	2192	1
1	3840	2196	1
1	3844	2200	1
1	3850	2204	1
1	3858	2208	1
1	3866	2212	1
1	3875	2216	1
1	3879	2220	1
1	3886	2224	1
1	3894	2228	1
1	3901	2232	1
1	3909	2236	1
1	3913	2240	1
1	3920	2244	1
1	3927	2248	1
1	3934	2252	1
1	3941	2256	1
1	3945	2260	1
1	3951	2264	1
1	3958	2268	1
1	3966	2272	1
1	3975	2276	1
1	3979	2280	1
1	3986	2284	1
1	3994	2288	1
1	4003	2292	1
1	4013	2296	1
1	4017	2300	1
1	4023	2304	1
1	4030	2308	1
1	4037	2312	1
1	4046	2316	1
1	4050	2320	1
1	4056	2324	1
1	4063	2328	1
1	4070	2332	1
1	4078	2336	1
1	4082	2340	1
1	4089	2344	1
1	4096	2348	1
1	4103	2352	1
1	4112	2356	1
1	4116	2360	1
1	4123	2364	1
1	4131	2368	1
1	4138	2372	1
1	4145	2376	1
1	4149	2380	1
1	4156	2384	1
1	4165	2388	1
1	4174	2392	1
1	4183	2396	1
1	4187	2400	1
1	4195	2404	1
1	4203	2408	1
1	4212	2412	1
1	4220	2416	1
1	4224	2420	1
1	4231	2424	1
1	4238	2428	1
1	4247	2432	1
1	4255	2436	1
1	4259	2440	1
1	4266	2444	1
1	4274	2448	1
1	4282	2452	1
1	4290	2456	1
1	4294	2460	1
1	4303	2464	1
1	4310	2468	1
1	4318	2472	1
1	4327	2476	1
1	4331	2480	1
1	4338	2484	1
1	4345	2488	1
1	4353	2492	1
1	4364	2496	1
1	4368	2500	1
1	4374	2504	1
1	4381	2508	1
1	4388	2512	1
1	4395	2516	1
1	4399	2520	1
1	4405	2524	1
1	4413	2528	1
1	4421	2532	1
1	4429	2536	1
1	4433	2540	1
1	4441	2544	1
1	4450	2548	1
1	4459	2552	1
1	4468	2556	1
1	4472	2560	1
1	4480	2564	1
1	4488	2568	1
1	4496	2572	1
1	4505	2576	1
1	4509	2580	1
1	4516	2584	1
1	4524	2588	1
1	4533	2592	1
1	4541	2596	1
1	4545	2600	1
1	4551	2604	1
1	4559	2608	1
1	4568	2612	1
1	4577	2616	1
1	4581	2620	1
1	4589	2624	1
1	4597	2628	1
1	4605	2632	1
1	4615	2636	1
1	4619	2640	1
1	4625	2644	1
1	4632	2648	1
1	4641	2652	1
1	4648	2656	1
1	4652	2660	1
1	4658	2664	1
1	4665	2668	1
1	4672	2672	1
1	4680	2676	1
1	4684	2680	1
1	4693	2684	1
1	4700	2688	1
1	4707	2692	1
1	4714	2696	1
1	4718	2700	1
1	4725	2704	1
1	4733	2708	1
1	4741	2712	1
1	4749	2716	1
1	4753	2720	1
1	4760	2724	1
1	4768	2728	1
1	4775	2732	1
1	4784	2736	1
1	4788	2740	1
1	4794	2744	1
1	4802	2748	1
1	4810	2752	1
1	4818	2756	1
1	4822	2760	1
1	4830	2764	1
1	4839	2768	1
1	4848	2772	1
1	4856	2776	1
1	4860	2780	1
1	4866	2784	1
1	4873	2788	1
1	4881	2792	1
1	4889	2796	1
1	4893	2800	1
1	4900	2804	1
1	4909	2808	1
1	4920	2812	1
1	4927	2816	1
1	4931	2820	1
1	4937	2824	1
1	4944	2828	1
1	4952	2832	1
1	4961	2836	1
1	4965	2840	1
1	4974	2844	1
1	4981	2848	1
1	4988	2852	1
1	4998	2856	1
1	5002	2860	1
1	5008	2864	1
1	5015	2868	1
1	5022	2872	1
1	5030	2876	1
1	5034	2880	1
1	5041	2884	1
1	5048	2888	1
1	5055	2892	1
1	5062	2896	1
1	5066	2900	1
1	5072	2904	1
1	5081	2908	1
1	5088	2912	1
1	5096	2916	1
1	5100	2920	1
1	5108	2924	1
1	5116	2928	1
1	5123	2932	1
1	5131	2936	1
1	5135	2940	1
1	5143	2944	1
1	5152	2948	1
1	5161	2952	1
1	5171	2956	1
1	5175	2960	1
1	5181	2964	1
1	5188	2968	1
1	5196	2972	1
1	5205	2976	1
1	5209	2980	1
1	5217	2984	1
1	5228	2988	1
1	5235	2992	1
1	5242	2996	1
1	5246	3000	1
1	5252	3004	1
1	5259	3008	1
1	5266	3012	1
1	5273	3016	1
1	5277	3020	1
1	5285	3024	1
1	5292	3028	1
1	5299	3032	1
1	5308	3036	1
1	5312	3040	1
1	5318	3044	1
1	5325	3048	1
1	5332	3052	1
1	5339	3056	1
1	5343	3060	1
1	5350	3064	1
1	5359	3068	1
1	5369	3072	1
1	5376	3076	1
1	5380	3080	1
1	5386	3084	1
1	5393	3088	1
1	5402	3092	1
1	5409	3096	1
1	5413	3100	1
1	5419	3104	1
1	5427	3108	1
1	5436	3112	1
1	5445	3116	1
1	5449	3120	1
1	5457	3124	1
1	5466	3128	1
1	5476	3132	1
1	5483	3136	1
1	5487	3140	1
1	5493	3144	1
1	5502	3148	1
1	5509	3152	1
1	5516	3156	1
1	5520	3160	1
1	5526	3164	1
1	5533	3168	1
1	5541	3172	1
1	5549	3176	1
1	5553	3180	1
1	5559	3184	1
1	5566	3188	1
1	5573	3192	1
1	5582	3196	1
1	5586	3200	1
1	5592	3204	1
1	5599	3208	1
1	5607	3212	1
1	5615	3216	1
1	5619	3220	1
1	5626	3224	1
1	5634	3228	1
1	5642	3232	1
1	5650	3236	1
1	5654	3240	1
1	5661	3244	1
1	5670	3248	1
1	5678	3252	1
1	5686	3256	1
1	5690	3260	1
1	5698	3264	1
1	5707	3268	1
1	5716	3272	1
1	5726	3276	1
1	5730	3280	1
1	5736	3284	1
1	5743	3288	1
1	5750	3292	1
1	5758	3296	1
1	5762	3300	1
1	5769	3304	1
1	5777	3308	1
1	5786	3312	1
1	5794	3316	1
1	5798	3320	1
1	5806	3324	1
1	5814	3328	1
1	5823	3332	1
1	5831	3336	1
1	5835	3340	1
1	5841	3344	1
1	5849	3348	1
1	5858	3352	1
1	5868	3356	1
1	5872	3360	1
1	5879	3364	1
1	5887	3368	1
1	5895	3372	1
1	5904	3376	1
1	5908	3380	1
1	5917	3384	1
1	5924	3388	1
1	5931	3392	1
1	5938	3396	1
1	5942	3400	1
1	5948	3404	1
1	5957	3408	1
1	5965	3412	1
1	5973	3416	1
1	5977	3420	1
1	5983	3424	1
1	5990	3428	1
1	5998	3432	1
1	6006	3436	1
1	6010	3440	1
1	6017	3444	1
1	6026	3448	1
1	6035	3452	1
1	6045	3456	1
1	6049	3460	1
1	6055	3464	1
1	6062	3468	1
1	6069	3472	1
1	6076	3476	1
1	6080	3480	1
1	6086	3484	1
1	6093	3488	1
1	6100	3492	1
1	6107	3496	1
1	6111	3500	1
1	6117	3504	1
1	6124	3508	1
1	6131	3512	1
1	6139	3516	1
1	6143	3520	1
1	6150	3524	1
1	6158	3528	1
1	6167	3532	1
1	6177	3536	1
1	6181	3540	1
1	6188	3544	1
1	6196	3548	1
1	6203	3552	1
1	6212	3556	1
1	6216	3560	1
1	6222	3564	1
1	6229	3568	1
1	6237	3572	1
1	6245	3576	1
1	6249	3580	1
1	6255	3584	1
1	6262	3588	1
1	6269	3592	1
1	6277	3596	1
1	6281	3600	1
2	3	4	1
2	10	8	1
2	18	12	1
2	27	16	1
2	31	20	1
2	41	24	1
2	48	28	1
2	55	32	1
2	62	36	1
2	66	40	1
2	72	44	1
2	82	48	1
2	89	52	1
2	96	56	1
2	100	60	1
2	106	64	1
2	113	68	1
2	120	72	1
2	127	76	1
2	131	80	1
2	138	84	1
2	148	88	1
2	156	92	1
2	165	96	1
2	169	100	1
2	177	104	1
2	185	108	1
2	193	112	1
2	202	116	1
2	206	120	1
2	213	124	1
2	222	128	1
2	229	132	1
2	236	136	1
2	240	140	1
2	247	144	1
2	255	148	1
2	263	152	1
2	272	156	1
2	276	160	1
2	283	164	1
2	291	168	1
2	299	172	1
2	307	176	1
2	311	180	1
2	319	184	1
2	328	188	1
2	337	192	1
2	346	196	1
2	350	200	1
2	357	204	1
2	365	208	1
2	375	212	1
2	382	216	1
2	386	220	1
2	392	224	1
2	401	228	1
2	408	232	1
2	415	236	1
2	419	240	1
2	425	244	1
2	433	248	1
2	442	252	1
2	450	256	1
2	454	260	1
2	460	264	1
2	467	268	1
2	474	272	1
2	482	276	1
2	486	280	1
2	493	284	1
2	501	288	1
2	510	292	1
2	518	296	1
2	522	300	1
2	530	304	1
2	537	308	1
2	544	312	1
2	551	316	1
2	555	320	1
2	561	324	1
2	569	328	1
2	578	332	1
2	587	336	1
2	591	340	1
2	600	344	1
2	607	348	1
2	614	352	1
2	621	356	1
2	625	360	1
2	632	364	1
2	641	368	1
2	649	372	1
2	656	376	1
2	660	380	1
2	668	384	1
2	675	388	1
2	682	392	1
2	690	396	1
2	694	400	1
2	701	404	1
2	708	408	1
2	716	412	1
2	726	416	1
2	730	420	1
2	736	424	1
2	743	428	1
2	750	432	1
2	758	436	1
2	762	440	1
2	769	444	1
2	777	448	1
2	785	452	1
2	792	456	1
2	796	460	1
2	803	464	1
2	812	468	1
2	821	472	1
2	831	476	1
2	835	480	1
2	841	484	1
2	848	488	1
2	856	492	1
2	864	496	1
2	868	500	1
2	875	504	1
2	884	508	1
2	892	512	1
2	902	516	1
2	906	520	1
2	912	524	1
2	919	528	1
2	926	532	1
2	934	536	1
2	938	540	1
2	945	544	1
2	953	548	1
2	962	552	1
2	970	556	1
2	974	560	1
2	980	564	1
2	988	568	1
2	997	572	1
2	1006	576	1
2	1010	580	1
2	1018	584	1
2	1028	588	1
2	1035	592	1
2	1042	596	1
2	1046	600	1
2	1052	604	1
2	1059	608	1
2	1066	612	1
2	1074	616	1
2	1078	620	1
2	1087	624	1
2	1094	628	1
2	1101	632	1
2	1108	636	1
2	1112	640	1
2	1118	644	1
2	1125	648	1
2	1132	652	1
2	1140	656	1
2	1144	660	1
2	1152	664	1
2	1161	668	1
2	1169	672	1
2	1177	676	1
2	1181	680	1
2	1188	684	1
2	1196	688	1
2	1204	692	1
2	1212	696	1
2	1216	700	1
2	1223	704	1
2	1231	708	1
2	1240	712	1
2	1249	716	1
2	1253	720	1
2	1261	724	1
2	1270	728	1
2	1279	732	1
2	1289	736	1
2	1293	740	1
2	1299	744	1
2	1306	748	1
2	1313	752	1
2	1321	756	1
2	1325	760	1
2	1332	764	1
2	1341	768	1
2	1348	772	1
2	1355	776	1
2	1359	780	1
2	1366	784	1
2	1374	788	1
2	1382	792	1
2	1392	796	1
2	1396	800	1
2	1402	804	1
2	1409	808	1
2	1417	812	1
2	1427	816	1
2	1431	820	1
2	1437	824	1
2	1444	828	1
2	1451	832	1
2	1458	836	1
2	1462	840	1
2	1468	844	1
2	1475	848	1
2	1483	852	1
2	1491	856	1
2	1495	860	1
2	1502	864	1
2	1512	868	1
2	1519	872	1
2	1526	876	1
2	1530	880	1
2	1537	884	1
2	1546	888	1
2	1554	892	1
2	1563	896	1
2	1567	900	1
2	1573	904	1
2	1580	908	1
2	1588	912	1
2	1596	916	1
2	1600	920	1
2	1606	924	1
2	1614	928	1
2	1624	932	1
2	1632	936	1
2	1636	940	1
2	1643	944	1
2	1651	948	1
2	1659	952	1
2	1666	956	1
2	1670	960	1
2	1677	964	1
2	1686	968	1
2	1695	972	1
2	1703	976	1
2	1707	980	1
2	1714	984	1
2	1723	988	1
2	1733	992	1
2	1741	996	1
2	1745	1000	1
2	1752	1004	1
2	1759	1008	1
2	1767	1012	1
2	1776	1016	1
2	1780	1020	1
2	1788	1024	1
2	1797	1028	1
2	1807	1032	1
2	1815	1036	1
2	1819	1040	1
2	1826	1044	1
2	1834	1048	1
2	1843	1052	1
2	1851	1056	1
2	1855	1060	1
2	1862	1064	1
2	1871	1068	1
2	1879	1072	1
2	1887	1076	1
2	1891	1080	1
2	1900	1084	1
2	1907	1088	1
2	1914	1092	1
2	1921	1096	1
2	1925	1100	1
2	1932	1104	1
2	1942	1108	1
2	1949	1112	1
2	1956	1116	1
2	1960	1120	1
2	1966	1124	1
2	1973	1128	1
2	1982	1132	1
2	1989	1136	1
2	1993	1140	1
2	1999	1144	1
2	2006	1148	1
2	2013	1152	1
2	2020	1156	1
2	2024	1160	1
2	2030	1164	1
2	2038	1168	1
2	2047	1172	1
2	2056	1176	1
2	2060	1180	1
2	2069	1184	1
2	2076	1188	1
2	2084	1192	1
2	2092	1196	1
2	2096	1200	1
2	2102	1204	1
2	2111	1208	1
2	2119	1212	1
2	2128	1216	1
2	2132	1220	1
2	2140	1224	1
2	2149	1228	1
2	2158	1232	1
2	2167	1236	1
2	2171	1240	1
2	2178	1244	1
2	2186	1248	1
2	2196	1252	1
2	2203	1256	1
2	2207	1260	1
2	2213	1264	1
2	2220	1268	1
2	2227	1272	1
2	2234	1276	1
2	2238	1280	1
2	2244	1284	1
2	2252	1288	1
2	2262	1292	1
2	2269	1296	1
2	2273	1300	1
2	2279	1304	1
2	2286	1308	1
2	2293	1312	1
2	2300	1316	1
2	2304	1320	1
2	2310	1324	1
2	2318	1328	1
2	2326	1332	1
2	2333	1336	1
2	2337	1340	1
2	2344	1344	1
2	2354	1348	1
2	2362	1352	1
2	2370	1356	1
2	2374	1360	1
2	2380	1364	1
2	2388	1368	1
2	2396	1372	1
2	2405	1376	1
2	2409	1380	1
2	2415	1384	1
2	2422	1388	1
2	2430	1392	1
2	2439	1396	1
2	2443	1400	1
2	2450	1404	1
2	2457	1408	1
2	2465	1412	1
2	2474	1416	1
2	2478	1420	1
2	2486	1424	1
2	2495	1428	1
2	2503	1432	1
2	2511	1436	1
2	2515	1440	1
2	2522	1444	1
2	2529	1448	1
2	2537	1452	1
2	2546	1456	1
2	2550	1460	1
2	2558	1464	1
2	2567	1468	1
2	2576	1472	1
2	2584	1476	1
2	2588	1480	1
2	2594	1484	1
2	2601	1488	1
2	2609	1492	1
2	2617	1496	1
2	2621	1500	1
2	2628	1504	1
2	2638	1508	1
2	2645	1512	1
2	2652	1516	1
2	2656	1520	1
2	2662	1524	1
2	2670	1528	1
2	2680	1532	1
2	2687	1536	1
2	2691	1540	1
2	2697	1544	1
2	2705	1548	1
2	2714	1552	1
2	2722	1556	1
2	2726	1560	1
2	2733	1564	1
2	2741	1568	1
2	2748	1572	1
2	2755	1576	1
2	2759	1580	1
2	2767	1584	1
2	2775	1588	1
2	2783	1592	1
2	2791	1596	1
2	2795	1600	1
2	2802	1604	1
2	2809	1608	1
2	2817	1612	1
2	2826	1616	1
2	2830	1620	1
2	2838	1624	1
2	2847	1628	1
2	2856	1632	1
2	2864	1636	1
2	2868	1640	1
2	2874	1644	1
2	2883	1648	1
2	2890	1652	1
2	2897	1656	1
2	2901	1660	1
2	2908	1664	1
2	2918	1668	1
2	2925	1672	1
2	2932	1676	1
2	2936	1680	1
2	2942	1684	1
2	2950	1688	1
2	2960	1692	1
2	2967	1696	1
2	2971	1700	1
2	2977	1704	1
2	2984	1708	1
2	2992	1712	1
2	3000	1716	1
2	3004	1720	1
2	3012	1724	1
2	3019	1728	1
2	3026	1732	1
2	3033	1736	1
2	3037	1740	1
2	3044	1744	1
2	3054	1748	1
2	3061	1752	1
2	3069	1756	1
2	3073	1760	1
2	3080	1764	1
2	3087	1768	1
2	3094	1772	1
2	3102	1776	1
2	3106	1780	1
2	3113	1784	1
2	3120	1788	1
2	3128	1792	1
2	3136	1796	1
2	3140	1800	1
2	3146	1804	1
2	3154	1808	1
2	3163	1812	1
2	3172	1816	1
2	3176	1820	1
2	3185	1824	1
2	3192	1828	1
2	3199	1832	1
2	3207	1836	1
2	3211	1840	1
2	3218	1844	1
2	3225	1848	1
2	3234	1852	1
2	3241	1856	1
2	3245	1860	1
2	3251	1864	1
2	3259	1868	1
2	3268	1872	1
2	3277	1876	1
2	3281	1880	1
2	3288	1884	1
2	3297	1888	1
2	3304	1892	1
2	3311	1896	1
2	3315	1900	1
2	3321	1904	1
2	3328	1908	1
2	3336	1912	1
2	3344	1916	1
2	3348	1920	1
2	3356	1924	1
2	3363	1928	1
2	3371	1932	1
2	3380	1936	1
2	3384	1940	1
2	3392	1944	1
2	3401	1948	1
2	3410	1952	1
2	3419	1956	1
2	3423	1960	1
2	3430	1964	1
2	3437	1968	1
2	3446	1972	1
2	3453	1976	1
2	3457	1980	1
2	3463	1984	1
2	3470	1988	1
2	3478	1992	1
2	3486	1996	1
2	3490	2000	1
2	3496	2004	1
2	3503	2008	1
2	3511	2012	1
2	3519	2016	1
2	3523	2020	1
2	3529	2024	1
2	3537	2028	1
2	3545	2032	1
2	3553	2036	1
2	3557	2040	1
2	3566	2044	1
2	3574	2048	1
2	3583	2052	1
2	3591	2056	1
2	3595	2060	1
2	3601	2064	1
2	3609	2068	1
2	3620	2072	1
2	3627	2076	1
2	3631	2080	1
2	3637	2084	1
2	3644	2088	1
2	3652	2092	1
2	3660	2096	1
2	3664	2100	1
2	3670	2104	1
2	3678	2108	1
2	3687	2112	1
2	3697	2116	1
2	3701	2120	1
2	3707	2124	1
2	3715	2128	1
2	3724	2132	1
2	3733	2136	1
2	3737	2140	1
2	3744	2144	1
2	3752	2148	1
2	3761	2152	1
2	3771	2156	1
2	3775	2160	1
2	3781	2164	1
2	3788	2168	1
2	3796	2172	1
2	3804	2176	1
2	3808	2180	1
2	3816	2184	1
2	3824	2188	1
2	3833	2192	1
2	3841	2196	1
2	3845	2200	1
2	3851	2204	1
2	3859	2208	1
2	3867	2212	1
2	3876	2216	1
2	3880	2220	1
2	3887	2224	1
2	3895	2228	1
2	3902	2232	1
2	3910	2236	1
2	3914	2240	1
2	3921	2244	1
2	3928	2248	1
2	3935	2252	1
2	3942	2256	1
2	3946	2260	1
2	3952	2264	1
2	3959	2268	1
2	3967	2272	1
2	3976	2276	1
2	3980	2280	1
2	3987	2284	1
2	3995	2288	1
2	4004	2292	1
2	4014	2296	1
2	4018	2300	1
2	4024	2304	1
2	4031	2308	1
2	4038	2312	1
2	4047	2316	1
2	4051	2320	1
2	4057	2324	1
2	4064	2328	1
2	4071	2332	1
2	4079	2336	1
2	4083	2340	1
2	4090	2344	1
2	4097	2348	1
2	4104	2352	1
2	4113	2356	1
2	4117	2360	1
2	4124	2364	1
2	4132	2368	1
2	4139	2372	1
2	4146	2376	1
2	4150	2380	1
2	4157	2384	1
2	4166	2388	1
2	4175	2392	1
2	4184	2396	1
2	4188	2400	1
2	4196	2404	1
2	4204	2408	1
2	4213	2412	1
2	4221	2416	1
2	4225	2420	1
2	4232	2424	1
2	4239	2428	1
2	4248	2432	1
2	4256	2436	1
2	4260	2440	1
2	4267	2444	1
2	4275	2448	1
2	4283	2452	1
2	4291	2456	1
2	4295	2460	1
2	4304	2464	1
2	4311	2468	1
2	4319	2472	1
2	4328	2476	1
2	4332	2480	1
2	4339	2484	1
2	4346	2488	1
2	4354	2492	1
2	4365	2496	1
2	4369	2500	1
2	4375	2504	1
2	4382	2508	1
2	4389	2512	1
2	4396	2516	1
2	4400	2520	1
2	4406	2524	1
2	4414	2528	1
2	4422	2532	1
2	4430	2536	1
2	4434	2540	1
2	4442	2544	1
2	4451	2548	1
2	4460	2552	1
2	4469	2556	1
2	4473	2560	1
2	4481	2564	1
2	4489	2568	1
2	4497	2572	1
2	4506	2576	1
2	4510	2580	1
2	4517	2584	1
2	4525	2588	1
2	4534	2592	1
2	4542	2596	1
2	4546	2600	1
2	4552	2604	1
2	4560	2608	1
2	4569	2612	1
2	4578	2616	1
2	4582	2620	1
2	4590	2624	1
2	4598	2628	1
2	4606	2632	1
2	4616	2636	1
2	4620	2640	1
2	4626	2644	1
2	4633	2648	1
2	4642	2652	1
2	4649	2656	1
2	4653	2660	1
2	4659	2664	1
2	4666	2668	1
2	4673	2672	1
2	4681	2676	1
2	4685	2680	1
2	4694	2684	1
2	4701	2688	1
2	4708	2692	1
2	4715	2696	1
2	4719	2700	1
2	4726	2704	1
2	4734	2708	1
2	4742	2712	1
2	4750	2716	1
2	4754	2720	1
2	4761	2724	1
2	4769	2728	1
2	4776	2732	1
2	4785	2736	1
2	4789	2740	1
2	4795	2744	1
2	4803	2748	1
2	4811	2752	1
2	4819	2756	1
2	4823	2760	1
2	4831	2764	1
2	4840	2768	1
2	4849	2772	1
2	4857	2776	1
2	4861	2780	1
2	4867	2784	1
2	4874	2788	1
2	4882	2792	1
2	4890	2796	1
2	4894	2800	1
2	4901	2804	1
2	4910	2808	1
2	4921	2812	1
2	4928	2816	1
2	4932	2820	1
2	4938	2824	1
2	4945	2828	1
2	4953	2832	1
2	4962	2836	1
2	4966	2840	1
2	4975	2844	1
2	4982	2848	1
2	4989	2852	1
2	4999	2856	1
2	5003	2860	1
2	5009	2864	1
2	5016	2868	1
2	5023	2872	1
2	5031	2876	1
2	5035	2880	1
2	5042	2884	1
2	5049	2888	1
2	5056	2892	1
2	5063	2896	1
2	5067	2900	1
2	5073	2904	1
2	5082	2908	1
2	5089	2912	1
2	5097	2916	1
2	5101	2920	1
2	5109	2924	1
2	5117	2928	1
2	5124	2932	1
2	5132	2936	1
2	5136	2940	1
2	5144	2944	1
2	5153	2948	1
2	5162	2952	1
2	5172	2956	1
2	5176	2960	1
2	5182	2964	1
2	5189	2968	1
2	5197	2972	1
2	5206	2976	1
2	5210	2980	1
2	5218	2984	1
2	5229	2988	1
2	5236	2992	1
2	5243	2996	1
2	5247	3000	1
2	5253	3004	1
2	5260	3008	1
2	5267	3012	1
2	5274	3016	1
2	5278	3020	1
2	5286	3024	1
2	5293	3028	1
2	5300	3032	1
2	5309	3036	1
2	5313	3040	1
2	5319	3044	1
2	5326	3048	1
2	5333	3052	1
2	5340	3056	1
2	5344	3060	1
2	5351	3064	1
2	5360	3068	1
2	5370	3072	1
2	5377	3076	1
2	5381	3080	1
2	5387	3084	1
2	5394	3088	1
2	5403	3092	1
2	5410	3096	1
2	5414	3100	1
2	5420	3104	1
2	5428	3108	1
2	5437	3112	1
2	5446	3116	1
2	5450	3120	1
2	5458	3124	1
2	5467	3128	1
2	5477	3132	1
2	5484	3136	1
2	5488	3140	1
2	5494	3144	1
2	5503	3148	1
2	5510	3152	1
2	5517	3156	1
2	5521	3160	1
2	5527	3164	1
2	5534	3168	1
2	5542	3172	1
2	5550	3176	1
2	5554	3180	1
2	5560	3184	1
2	5567	3188	1
2	5574	3192	1
2	5583	3196	1
2	5587	3200	1
2	5593	3204	1
2	5600	3208	1
2	5608	3212	1
2	5616	3216	1
2	5620	3220	1
2	5627	3224	1
2	5635	3228	1
2	5643	3232	1
2	5651	3236	1
2	5655	3240	1
2	5662	3244	1
2	5671	3248	1
2	5679	3252	1
2	5687	3256	1
2	5691	3260	1
2	5699	3264	1
2	5708	3268	1
2	5717	3272	1
2	5727	3276	1
2	5731	3280	1
2	5737	3284	1
2	5744	3288	1
2	5751	3292	1
2	5759	3296	1
2	5763	3300	1
2	5770	3304	1
2	5778	3308	1
2	5787	3312	1
2	5795	3316	1
2	5799	3320	1
2	5807	3324	1
2	5815	3328	1
2	5824	3332	1
2	5832	3336	1
2	5836	3340	1
2	5842	3344	1
2	5850	3348	1
2	5859	3352	1
2	5869	3356	1
2	5873	3360	1
2	5880	3364	1
2	5888	3368	1
2	5896	3372	1
2	5905	3376	1
2	5909	3380	1
2	5918	3384	1
2	5925	3388	1
2	5932	3392	1
2	5939	3396	1
2	5943	3400	1
2	5949	3404	1
2	5958	3408	1
2	5966	3412	1
2	5974	3416	1
2	5978	3420	1
2	5984	3424	1
2	5991	3428	1
2	5999	3432	1
2	6007	3436	1
2	6011	3440	1
2	6018	3444	1
2	6027	3448	1
2	6036	3452	1
2	6046	3456	1
2	6050	3460	1
2	6056	3464	1
2	6063	3468	1
2	6070	3472	1
2	6077	3476	1
2	6081	3480	1
2	6087	3484	1
2	6094	3488	1
2	6101	3492	1
2	6108	3496	1
2	6112	3500	1
2	6118	3504	1
2	6125	3508	1
2	6132	3512	1
2	6140	3516	1
2	6144	3520	1
2	6151	3524	1
2	6159	3528	1
2	6168	3532	1
2	6178	3536	1
2	6182	3540	1
2	6189	3544	1
2	6197	3548	1
2	6204	3552	1
2	6213	3556	1
2	6217	3560	1
2	6223	3564	1
2	6230	3568	1
2	6238	3572	1
2	6246	3576	1
2	6250	3580	1
2	6256	3584	1
2	6263	3588	1
2	6270	3592	1
2	6278	3596	1
2	6282	3600	1
3	4	5	0
3	11	10	0
3	19	15	1
3	28	20	1
3	42	25	0
3	49	30	0
3	56	35	0
3	63	40	0
3	73	45	0
3	83	50	0
3	90	55	0
3	97	60	0
3	107	65	0
3	114	70	0
3	121	75	0
3	128	80	0
3	139	85	1
3	149	90	0
3	157	95	1
3	166	100	1
3	178	105	1
3	186	110	0
3	194	115	1
3	203	120	1
3	214	125	0
3	223	130	0
3	230	135	0
3	237	140	0
3	248	145	1
3	256	150	0
3	264	155	1
3	273	160	1
3	284	165	0
3	292	170	1
3	300	175	0
3	308	180	1
3	320	185	1
3	329	190	1
3	338	195	1
3	347	200	1
3	358	205	0
3	366	210	1
3	376	215	0
3	383	220	0
3	393	225	0
3	402	230	0
3	409	235	0
3	416	240	0
3	426	245	0
3	434	250	1
3	443	255	1
3	451	260	0
3	461	265	0
3	468	270	0
3	475	275	0
3	483	280	1
3	494	285	0
3	502	290	1
3	511	295	1
3	519	300	0
3	531	305	0
3	538	310	0
3	545	315	0
3	552	320	0
3	562	325	0
3	570	330	1
3	579	335	1
3	588	340	1
3	601	345	0
3	608	350	0
3	615	355	0
3	622	360	0
3	633	365	1
3	642	370	1
3	650	375	0
3	657	380	0
3	669	385	0
3	676	390	0
3	683	395	0
3	691	400	1
3	702	405	0
3	709	410	0
3	717	415	1
3	727	420	0
3	737	425	0
3	744	430	0
3	751	435	0
3	759	440	1
3	770	445	0
3	778	450	1
3	786	455	0
3	793	460	0
3	804	465	1
3	813	470	1
3	822	475	1
3	832	480	0
3	842	485	0
3	849	490	0
3	857	495	1
3	865	500	0
3	876	505	1
3	885	510	1
3	893	515	0
3	903	520	0
3	913	525	0
3	920	530	0
3	927	535	0
3	935	540	1
3	946	545	0
3	954	550	1
3	963	555	1
3	971	560	0
3	981	565	0
3	989	570	1
3	998	575	1
3	1007	580	1
3	1019	585	1
3	1029	590	0
3	1036	595	0
3	1043	600	0
3	1053	605	0
3	1060	610	0
3	1067	615	0
3	1075	620	1
3	1088	625	0
3	1095	630	0
3	1102	635	0
3	1109	640	0
3	1119	645	0
3	1126	650	0
3	1133	655	0
3	1141	660	1
3	1153	665	1
3	1162	670	1
3	1170	675	0
3	1178	680	1
3	1189	685	0
3	1197	690	1
3	1205	695	0
3	1213	700	1
3	1224	705	0
3	1232	710	1
3	1241	715	1
3	1250	720	1
3	1262	725	1
3	1271	730	1
3	1280	735	1
3	1290	740	0
3	1300	745	0
3	1307	750	0
3	1314	755	0
3	1322	760	1
3	1333	765	0
3	1342	770	0
3	1349	775	0
3	1356	780	0
3	1367	785	1
3	1375	790	0
3	1383	795	1
3	1393	800	0
3	1403	805	0
3	1410	810	0
3	1418	815	1
3	1428	820	0
3	1438	825	0
3	1445	830	0
3	1452	835	0
3	1459	840	0
3	1469	845	0
3	1476	850	0
3	1484	855	1
3	1492	860	0
3	1503	865	1
3	1513	870	0
3	1520	875	0
3	1527	880	0
3	1538	885	1
3	1547	890	1
3	1555	895	0
3	1564	900	0
3	1574	905	0
3	1581	910	0
3	1589	915	1
3	1597	920	0
3	1607	925	0
3	1615	930	1
3	1625	935	0
3	1633	940	1
3	1644	945	0
3	1652	950	1
3	1660	955	0
3	1667	960	0
3	1678	965	1
3	1687	970	1
3	1696	975	1
3	1704	980	0
3	1715	985	1
3	1724	990	1
3	1734	995	0
3	1742	1000	1
3	1753	1005	0
3	1760	1010	0
3	1768	1015	1
3	1777	1020	1
3	1789	1025	1
3	1798	1030	1
3	1808	1035	0
3	1816	1040	1
3	1827	1045	0
3	1835	1050	1
3	1844	1055	1
3	1852	1060	0
3	1863	1065	1
3	1872	1070	1
3	1880	1075	0
3	1888	1080	1
3	1901	1085	0
3	1908	1090	0
3	1915	1095	0
3	1922	1100	0
3	1933	1105	1
3	1943	1110	0
3	1950	1115	0
3	1957	1120	0
3	1967	1125	0
3	1974	1130	0
3	1983	1135	0
3	1990	1140	0
3	2000	1145	0
3	2007	1150	0
3	2014	1155	0
3	2021	1160	0
3	2031	1165	0
3	2039	1170	1
3	2048	1175	1
3	2057	1180	1
3	2070	1185	0
3	2077	1190	0
3	2085	1195	1
3	2093	1200	0
3	2103	1205	0
3	2112	1210	0
3	2120	1215	1
3	2129	1220	1
3	2141	1225	1
3	2150	1230	1
3	2159	1235	1
3	2168	1240	1
3	2179	1245	0
3	2187	1250	1
3	2197	1255	0
3	2204	1260	0
3	2214	1265	0
3	2221	1270	0
3	2228	1275	0
3	2235	1280	0
3	2245	1285	0
3	2253	1290	1
3	2263	1295	0
3	2270	1300	0
3	2280	1305	0
3	2287	1310	0
3	2294	1315	0
3	2301	1320	0
3	2311	1325	0
3	2319	1330	1
3	2327	1335	0
3	2334	1340	0
3	2345	1345	1
3	2355	1350	0
3	2363	1355	1
3	2371	1360	0
3	2381	1365	0
3	2389	1370	1
3	2397	1375	0
3	2406	1380	0
3	2416	1385	0
3	2423	1390	0
3	2431	1395	1
3	2440	1400	1
3	2451	1405	0
3	2458	1410	0
3	2466	1415	1
3	2475	1420	1
3	2487	1425	1
3	2496	1430	1
3	2504	1435	0
3	2512	1440	1
3	2523	1445	0
3	2530	1450	0
3	2538	1455	1
3	2547	1460	1
3	2559	1465	1
3	2568	1470	1
3	2577	1475	1
3	2585	1480	0
3	2595	1485	0
3	2602	1490	0
3	2610	1495	1
3	2618	1500	0
3	2629	1505	1
3	2639	1510	0
3	2646	1515	0
3	2653	1520	0
3	2663	1525	0
3	2671	1530	1
3	2681	1535	0
3	2688	1540	0
3	2698	1545	0
3	2706	1550	1
3	2715	1555	1
3	2723	1560	0
3	2734	1565	1
3	2742	1570	0
3	2749	1575	0
3	2756	1580	0
3	2768	1585	0
3	2776	1590	1
3	2784	1595	0
3	2792	1600	1
3	2803	1605	0
3	2810	1610	0
3	2818	1615	1
3	2827	1620	1
3	2839	1625	1
3	2848	1630	1
3	2857	1635	1
3	2865	1640	0
3	2875	1645	0
3	2884	1650	0
3	2891	1655	0
3	2898	1660	0
3	2909	1665	1
3	2919	1670	0
3	2926	1675	0
3	2933	1680	0
3	2943	1685	0
3	2951	1690	1
3	2961	1695	0
3	2968	1700	0
3	2978	1705	0
3	2985	1710	0
3	2993	1715	1
3	3001	1720	0
3	3013	1725	0
3	3020	1730	0
3	3027	1735	0
3	3034	1740	0
3	3045	1745	1
3	3055	1750	0
3	3062	1755	0
3	3070	1760	1
3	3081	1765	0
3	3088	1770	0
3	3095	1775	0
3	3103	1780	1
3	3114	1785	0
3	3121	1790	0
3	3129	1795	1
3	3137	1800	0
3	3147	1805	0
3	3155	1810	1
3	3164	1815	1
3	3173	1820	1
3	3186	1825	0
3	3193	1830	0
3	3200	1835	0
3	3208	1840	1
3	3219	1845	0
3	3226	1850	0
3	3235	1855	0
3	3242	1860	0
3	3252	1865	0
3	3260	1870	1
3	3269	1875	1
3	3278	1880	1
3	3289	1885	0
3	3298	1890	0
3	3305	1895	0
3	3312	1900	0
3	3322	1905	0
3	3329	1910	0
3	3337	1915	1
3	3345	1920	0
3	3357	1925	0
3	3364	1930	0
3	3372	1935	1
3	3381	1940	1
3	3393	1945	1
3	3402	1950	1
3	3411	1955	1
3	3420	1960	1
3	3431	1965	0
3	3438	1970	0
3	3447	1975	0
3	3454	1980	0
3	3464	1985	0
3	3471	1990	0
3	3479	1995	1
3	3487	2000	0
3	3497	2005	0
3	3504	2010	0
3	3512	2015	1
3	3520	2020	0
3	3530	2025	0
3	3538	2030	1
3	3546	2035	0
3	3554	2040	1
3	3567	2045	0
3	3575	2050	1
3	3584	2055	1
3	3592	2060	0
3	3602	2065	0
3	3610	2070	1
3	3621	2075	0
3	3628	2080	0
3	3638	2085	0
3	3645	2090	0
3	3653	2095	1
3	3661	2100	0
3	3671	2105	0
3	3679	2110	1
3	3688	2115	1
3	3698	2120	0
3	3708	2125	0
3	3716	2130	1
3	3725	2135	1
3	3734	2140	1
3	3745	2145	0
3	3753	2150	1
3	3762	2155	1
3	3772	2160	0
3	3782	2165	0
3	3789	2170	0
3	3797	2175	1
3	3805	2180	0
3	3817	2185	0
3	3825	2190	1
3	3834	2195	1
3	3842	2200	0
3	3852	2205	0
3	3860	2210	1
3	3868	2215	0
3	3877	2220	0
3	3888	2225	1
3	3896	2230	0
3	3903	2235	0
3	3911	2240	1
3	3922	2245	0
3	3929	2250	0
3	3936	2255	0
3	3943	2260	0
3	3953	2265	0
3	3960	2270	0
3	3968	2275	1
3	3977	2280	1
3	3988	2285	0
3	3996	2290	1
3	4005	2295	1
3	4015	2300	0
3	4025	2305	0
3	4032	2310	0
3	4039	2315	0
3	4048	2320	0
3	4058	2325	0
3	4065	2330	0
3	4072	2335	0
3	4080	2340	1
3	4091	2345	0
3	4098	2350	0
3	4105	2355	0
3	4114	2360	0
3	4125	2365	1
3	4133	2370	0
3	4140	2375	0
3	4147	2380	0
3	4158	2385	1
3	4167	2390	1
3	4176	2395	1
3	4185	2400	1
3	4197	2405	1
3	4205	2410	0
3	4214	2415	0
3	4222	2420	1
3	4233	2425	0
3	4240	2430	0
3	4249	2435	0
3	4257	2440	1
3	4268	2445	0
3	4276	2450	1
3	4284	2455	0
3	4292	2460	1
3	4305	2465	0
3	4312	2470	0
3	4320	2475	1
3	4329	2480	1
3	4340	2485	0
3	4347	2490	0
3	4355	2495	1
3	4366	2500	0
3	4376	2505	0
3	4383	2510	0
3	4390	2515	0
3	4397	2520	0
3	4407	2525	0
3	4415	2530	1
3	4423	2535	0
3	4431	2540	1
3	4443	2545	1
3	4452	2550	1
3	4461	2555	1
3	4470	2560	1
3	4482	2565	1
3	4490	2570	0
3	4498	2575	1
3	4507	2580	1
3	4518	2585	0
3	4526	2590	1
3	4535	2595	1
3	4543	2600	0
3	4553	2605	0
3	4561	2610	1
3	4570	2615	1
3	4579	2620	1
3	4591	2625	1
3	4599	2630	0
3	4607	2635	1
3	4617	2640	0
3	4627	2645	0
3	4634	2650	0
3	4643	2655	0
3	4650	2660	0
3	4660	2665	0
3	4667	2670	0
3	4674	2675	0
3	4682	2680	1
3	4695	2685	0
3	4702	2690	0
3	4709	2695	0
3	4716	2700	0
3	4727	2705	1
3	4735	2710	0
3	4743	2715	1
3	4751	2720	0
3	4762	2725	1
3	4770	2730	0
3	4777	2735	0
3	4786	2740	0
3	4796	2745	0
3	4804	2750	1
3	4812	2755	0
3	4820	2760	1
3	4832	2765	1
3	4841	2770	1
3	4850	2775	1
3	4858	2780	0
3	4868	2785	0
3	4875	2790	0
3	4883	2795	1
3	4891	2800	0
3	4902	2805	1
3	4911	2810	1
3	4922	2815	0
3	4929	2820	0
3	4939	2825	0
3	4946	2830	0
3	4954	2835	1
3	4963	2840	1
3	4976	2845	0
3	4983	2850	0
3	4990	2855	0
3	5000	2860	0
3	5010	2865	0
3	5017	2870	0
3	5024	2875	0
3	5032	2880	1
3	5043	2885	0
3	5050	2890	0
3	5057	2895	0
3	5064	2900	0
3	5074	2905	0
3	5083	2910	0
3	5090	2915	0
3	5098	2920	1
3	5110	2925	1
3	5118	2930	0
3	5125	2935	0
3	5133	2940	1
3	5145	2945	1
3	5154	2950	1
3	5163	2955	1
3	5173	2960	0
3	5183	2965	0
3	5190	2970	0
3	5198	2975	1
3	5207	2980	1
3	5219	2985	1
3	5230	2990	0
3	5237	2995	0
3	5244	3000	0
3	5254	3005	0
3	5261	3010	0
3	5268	3015	0
3	5275	3020	0
3	5287	3025	0
3	5294	3030	0
3	5301	3035	0
3	5310	3040	0
3	5320	3045	0
3	5327	3050	0
3	5334	3055	0
3	5341	3060	0
3	5352	3065	1
3	5361	3070	1
3	5371	3075	0
3	5378	3080	0
3	5388	3085	0
3	5395	3090	0
3	5404	3095	0
3	5411	3100	0
3	5421	3105	0
3	5429	3110	1
3	5438	3115	1
3	5447	3120	1
3	5459	3125	1
3	5468	3130	1
3	5478	3135	0
3	5485	3140	0
3	5495	3145	0
3	5504	3150	0
3	5511	3155	0
3	5518	3160	0
3	5528	3165	0
3	5535	3170	0
3	5543	3175	1
3	5551	3180	0
3	5561	3185	0
3	5568	3190	0
3	5575	3195	0
3	5584	3200	0
3	5594	3205	0
3	5601	3210	0
3	5609	3215	1
3	5617	3220	0
3	5628	3225	1
3	5636	3230	0
3	5644	3235	1
3	5652	3240	0
3	5663	3245	1
3	5672	3250	1
3	5680	3255	0
3	5688	3260	1
3	5700	3265	1
3	5709	3270	1
3	5718	3275	1
3	5728	3280	0
3	5738	3285	0
3	5745	3290	0
3	5752	3295	0
3	5760	3300	1
3	5771	3305	0
3	5779	3310	1
3	5788	3315	1
3	5796	3320	0
3	5808	3325	0
3	5816	3330	1
3	5825	3335	1
3	5833	3340	0
3	5843	3345	0
3	5851	3350	1
3	5860	3355	1
3	5870	3360	0
3	5881	3365	1
3	5889	3370	0
3	5897	3375	1
3	5906	3380	1
3	5919	3385	0
3	5926	3390	0
3	5933	3395	0
3	5940	3400	0
3	5950	3405	0
3	5959	3410	0
3	5967	3415	1
3	5975	3420	0
3	5985	3425	0
3	5992	3430	0
3	6000	3435	1
3	6008	3440	0
3	6019	3445	1
3	6028	3450	1
3	6037	3455	1
3	6047	3460	0
3	6057	3465	0
3	6064	3470	0
3	6071	3475	0
3	6078	3480	0
3	6088	3485	0
3	6095	3490	0
3	6102	3495	0
3	6109	3500	0
3	6119	3505	0
3	6126	3510	0
3	6133	3515	0
3	6141	3520	1
3	6152	3525	0
3	6160	3530	1
3	6169	3535	1
3	6179	3540	0
3	6190	3545	1
3	6198	3550	0
3	6205	3555	0
3	6214	3560	0
3	6224	3565	0
3	6231	3570	0
3	6239	3575	1
3	6247	3580	0
3	6257	3585	0
3	6264	3590	0
3	6271	3595	0
3	6279	3600	1
4	21	15	1
4	313	180	1
4	322	185	1
4	352	200	1
4	368	210	1
4	445	255	1
4	504	290	1
4	593	340	1
4	635	365	1
4	644	370	1
4	719	415	1
4	764	440	1
4	806	465	1
4	859	495	1
4	887	510	1
4	940	540	1
4	956	550	1
4	965	555	1
4	991	570	1
4	1012	580	1
4	1021	585	1
4	1155	665	1
4	1183	680	1
4	1243	715	1
4	1273	730	1
4	1282	735	1
4	1369	785	1
4	1420	815	1
4	1505	865	1
4	1591	915	1
4	1698	975	1
4	1747	1000	1
4	1770	1015	1
4	1791	1025	1
4	1800	1030	1
4	1935	1105	1
4	2365	1355	1
4	2391	1370	1
4	2445	1400	1
4	2489	1425	1
4	2517	1440	1
4	2570	1470	1
4	2579	1475	1
4	2708	1550	1
4	2717	1555	1
4	2820	1615	1
4	2841	1625	1
4	2859	1635	1
4	2911	1665	1
4	3047	1745	1
4	3075	1760	1
4	3108	1780	1
4	3157	1810	1
4	3178	1820	1
4	3213	1840	1
4	3262	1870	1
4	3271	1875	1
4	3283	1880	1
4	3339	1915	1
4	3374	1935	1
4	3386	1940	1
4	3413	1955	1
4	3540	2030	1
4	3690	2115	1
4	3755	2150	1
4	3799	2175	1
4	3998	2290	1
4	4007	2295	1
4	4160	2385	1
4	4178	2395	1
4	4190	2400	1
4	4199	2405	1
4	4227	2420	1
4	4262	2440	1
4	4278	2450	1
4	4297	2460	1
4	4357	2495	1
4	4445	2545	1
4	4584	2620	1
4	4729	2705	1
4	4745	2715	1
4	4764	2725	1
4	4806	2750	1
4	4825	2760	1
4	4834	2765	1
4	4843	2770	1
4	4852	2775	1
4	4885	2795	1
4	4904	2805	1
4	5103	2920	1
4	5112	2925	1
4	5138	2940	1
4	5147	2945	1
4	5354	3065	1
4	5363	3070	1
4	5440	3115	1
4	5461	3125	1
4	5702	3265	1
4	5711	3270	1
4	5883	3365	1
4	5899	3375	1
4	5911	3380	1
4	6146	3520	1
4	6241	3575	1
4	6284	3600	1
5	21	15	11
5	313	180	172
5	322	185	173
5	352	200	184
5	368	210	190
5	445	255	231
5	504	290	106
5	593	340	152
5	635	365	161
5	644	370	158
5	719	415	159
5	764	440	148
5	806	465	121
5	859	495	127
5	887	510	138
5	940	540	124
5	956	550	106
5	965	555	87
5	991	570	74
5	1012	580	68
5	1021	585	41
5	1155	665	113
5	1183	680	124
5	1243	715	143
5	1273	730	146
5	1282	735	147
5	1369	785	117
5	1420	815	131
5	1505	865	149
5	1591	915	183
5	1698	975	239
5	1747	1000	212
5	1770	1015	199
5	1791	1025	157
5	1800	1030	114
5	1935	1105	129
5	2365	1355	351
5	2391	1370	354
5	2445	1400	372
5	2489	1425	393
5	2517	1440	332
5	2570	1470	114
5	2579	1475	103
5	2708	1550	146
5	2717	1555	127
5	2820	1615	171
5	2841	1625	153
5	2859	1635	159
5	2911	1665	113
5	3047	1745	189
5	3075	1760	144
5	3108	1780	152
5	3157	1810	174
5	3178	1820	152
5	3213	1840	92
5	3262	1870	106
5	3271	1875	91
5	3283	1880	68
5	3339	1915	91
5	3374	1935	91
5	3386	1940	68
5	3413	1955	79
5	3540	2030	146
5	3690	2115	199
5	3755	2150	214
5	3799	2175	231
5	3998	2290	334
5	4007	2295	263
5	4160	2385	269
5	4178	2395	243
5	4190	2400	224
5	4199	2405	113
5	4227	2420	124
5	4262	2440	52
5	4278	2450	54
5	4297	2460	56
5	4357	2495	87
5	4445	2545	121
5	4584	2620	176
5	4729	2705	253
5	4745	2715	251
5	4764	2725	229
5	4806	2750	202
5	4825	2760	136
5	4834	2765	57
5	4843	2770	54
5	4852	2775	47
5	4885	2795	43
5	4904	2805	41
5	5103	2920	152
5	5112	2925	153
5	5138	2940	164
5	5147	2945	149
5	5354	3065	257
5	5363	3070	146
5	5440	3115	187
5	5461	3125	181
5	5702	3265	317
5	5711	3270	202
5	5883	3365	293
5	5899	3375	259
5	5911	3380	252
5	6146	3520	252
5	6241	3575	303
5	6284	3600	232
6	21	15	0
6	313	180	1
6	322	185	1
6	352	200	1
6	368	210	1
6	445	255	1
6	504	290	1
6	593	340	1
6	635	365	1
6	644	370	1
6	719	415	1
6	764	440	1
6	806	465	1
6	859	495	1
6	887	510	1
6	940	540	1
6	956	550	1
6	965	555	1
6	991	570	1
6	1012	580	1
6	1021	585	1
6	1155	665	1
6	1183	680	1
6	1243	715	1
6	1273	730	1
6	1282	735	1
6	1369	785	1
6	1420	815	1
6	1505	865	1
6	1591	915	1
6	1698	975	1
6	1747	1000	1
6	1770	1015	1
6	1791	1025	1
6	1800	1030	1
6	1935	1105	1
6	2365	1355	1
6	2391	1370	1
6	2445	1400	1
6	2489	1425	1
6	2517	1440	1
6	2570	1470	1
6	2579	1475	1
6	2708	1550	1
6	2717	1555	1
6	2820	1615	1
6	2841	1625	1
6	2859	1635	1
6	2911	1665	1
6	3047	1745	1
6	3075	1760	1
6	3108	1780	1
6	3157	1810	1
6	3178	1820	1
6	3213	1840	1
6	3262	1870	1
6	3271	1875	1
6	3283	1880	1
6	3339	1915	1
6	3374	1935	1
6	3386	1940	1
6	3413	1955	1
6	3540	2030	1
6	3690	2115	1
6	3755	2150	1
6	3799	2175	1
6	3998	2290	1
6	4007	2295	1
6	4160	2385	1
6	4178	2395	1
6	4190	2400	1
6	4199	2405	1
6	4227	2420	1
6	4262	2440	1
6	4278	2450	1
6	4297	2460	1
6	4357	2495	1
6	4445	2545	1
6	4584	2620	1
6	4729	2705	1
6	4745	2715	1
6	4764	2725	1
6	4806	2750	1
6	4825	2760	1
6	4834	2765	1
6	4843	2770	1
6	4852	2775	1
6	4885	2795	1
6	4904	2805	1
6	5103	2920	1
6	5112	2925	1
6	5138	2940	1
6	5147	2945	1
6	5354	3065	1
6	5363	3070	1
6	5440	3115	1
6	5461	3125	1
6	5702	3265	1
6	5711	3270	1
6	5883	3365	1
6	5899	3375	1
6	5911	3380	1
6	6146	3520	1
6	6241	3575	1
6	6284	3600	1
7	33	20	1
7	141	85	1
7	159	95	1
7	171	100	1
7	180	105	1
7	196	115	1
7	208	120	1
7	250	145	1
7	266	155	1
7	278	160	1
7	294	170	1
7	331	190	1
7	340	195	1
7	436	250	1
7	488	280	1
7	513	295	1
7	572	330	1
7	581	335	1
7	696	400	1
7	780	450	1
7	815	470	1
7	824	475	1
7	878	505	1
7	1000	575	1
7	1080	620	1
7	1146	660	1
7	1164	670	1
7	1199	690	1
7	1218	700	1
7	1234	710	1
7	1255	720	1
7	1264	725	1
7	1327	760	1
7	1385	795	1
7	1486	855	1
7	1617	930	1
7	1638	940	1
7	1654	950	1
7	1689	970	1
7	1717	985	1
7	1821	1040	1
7	1837	1050	1
7	1846	1055	1
7	1865	1065	1
7	1874	1070	1
7	2041	1170	1
7	2050	1175	1
7	2062	1180	1
7	2122	1215	1
7	2134	1220	1
7	2143	1225	1
7	2255	1290	1
7	2321	1330	1
7	2347	1345	1
7	2468	1415	1
7	2480	1420	1
7	2540	1455	1
7	2552	1460	1
7	2561	1465	1
7	2631	1505	1
7	2673	1530	1
7	2736	1565	1
7	2797	1600	1
7	2850	1630	1
7	3481	1995	1
7	3514	2015	1
7	3718	2130	1
7	3727	2135	1
7	4085	2340	1
7	4169	2390	1
7	4593	2625	1
7	4609	2635	1
7	4968	2840	1
7	5165	2955	1
7	5200	2975	1
7	5212	2980	1
7	5611	3215	1
7	5630	3225	1
7	5674	3250	1
7	5720	3275	1
7	6162	3530	1
7	6171	3535	1
7	6192	3545	1
8	33	20	16
8	141	85	77
8	159	95	83
8	171	100	84
8	180	105	85
8	196	115	91
8	208	120	32
8	250	145	49
8	266	155	51
8	278	160	52
8	294	170	54
8	331	190	66
8	340	195	47
8	436	250	94
8	488	280	116
8	513	295	123
8	572	330	138
8	581	335	139
8	696	400	148
8	780	450	166
8	815	470	174
8	824	475	143
8	878	505	169
8	1000	575	171
8	1080	620	168
8	1146	660	188
8	1164	670	194
8	1199	690	182
8	1218	700	124
8	1234	710	86
8	1255	720	56
8	1264	725	53
8	1327	760	68
8	1385	795	91
8	1486	855	143
8	1617	930	206
8	1638	940	212
8	1654	950	186
8	1689	970	174
8	1717	985	129
8	1821	1040	108
8	1837	1050	106
8	1846	1055	103
8	1865	1065	93
8	1874	1070	82
8	2041	1170	126
8	2050	1175	123
8	2062	1180	124
8	2122	1215	147
8	2134	1220	148
8	2143	1225	53
8	2255	1290	114
8	2321	1330	146
8	2347	1345	129
8	2468	1415	191
8	2480	1420	192
8	2540	1455	163
8	2552	1460	128
8	2561	1465	117
8	2631	1505	89
8	2673	1530	106
8	2736	1565	109
8	2797	1600	136
8	2850	1630	162
8	3481	1995	487
8	3514	2015	483
8	3718	2130	562
8	3727	2135	531
8	4085	2340	708
8	4169	2390	394
8	4593	2625	609
8	4609	2635	503
8	4968	2840	704
8	5165	2955	611
8	5200	2975	583
8	5212	2980	352
8	5611	3215	579
8	5630	3225	381
8	5674	3250	294
8	5720	3275	299
8	6162	3530	546
8	6171	3535	319
8	6192	3545	317
9	33	20	0
9	141	85	1
9	159	95	1
9	171	100	1
9	180	105	1
9	196	115	1
9	208	120	1
9	250	145	1
9	266	155	1
9	278	160	1
9	294	170	1
9	331	190	1
9	340	195	1
9	436	250	1
9	488	280	1
9	513	295	1
9	572	330	1
9	581	335	1
9	696	400	1
9	780	450	1
9	815	470	1
9	824	475	1
9	878	505	1
9	1000	575	1
9	1080	620	1
9	1146	660	1
9	1164	670	1
9	1199	690	1
9	1218	700	1
9	1234	710	1
9	1255	720	1
9	1264	725	1
9	1327	760	1
9	1385	795	1
9	1486	855	1
9	1617	930	1
9	1638	940	1
9	1654	950	1
9	1689	970	1
9	1717	985	1
9	1821	1040	1
9	1837	1050	1
9	1846	1055	1
9	1865	1065	1
9	1874	1070	1
9	2041	1170	1
9	2050	1175	1
9	2062	1180	1
9	2122	1215	1
9	2134	1220	1
9	2143	1225	1
9	2255	1290	1
9	2321	1330	1
9	2347	1345	1
9	2468	1415	1
9	2480	1420	1
9	2540	1455	1
9	2552	1460	1
9	2561	1465	1
9	2631	1505	1
9	2673	1530	1
9	2736	1565	1
9	2797	1600	1
9	2850	1630	1
9	3481	1995	1
9	3514	2015	1
9	3718	2130	1
9	3727	2135	1
9	4085	2340	1
9	4169	2390	1
9	4593	2625	1
9	4609	2635	1
9	4968	2840	1
9	5165	2955	1
9	5200	2975	1
9	5212	2980	1
9	5611	3215	1
9	5630	3225	1
9	5674	3250	1
9	5720	3275	1
9	6162	3530	1
9	6171	3535	1
9	6192	3545	1
10	41	24	1
10	48	28	1
10	55	32	1
10	62	36	1
10	66	40	1
10	72	44	1
10	82	48	1
10	89	52	1
10	96	56	1
10	100	60	1
10	106	64	1
10	113	68	1
10	120	72	1
10	127	76	1
10	131	80	1
10	138	84	1
10	148	88	1
10	156	92	1
10	165	96	1
10	169	100	1
10	177	104	1
10	185	108	1
10	193	112	1
10	202	116	1
10	206	120	1
10	213	124	1
10	222	128	1
10	229	132	1
10	236	136	1
10	240	140	1
10	247	144	1
10	255	148	1
10	263	152	1
10	272	156	1
10	276	160	1
10	283	164	1
10	291	168	1
10	299	172	1
10	307	176	1
10	311	180	1
10	319	184	1
10	328	188	1
10	337	192	1
10	346	196	1
10	350	200	1
10	357	204	1
10	365	208	1
10	375	212	1
10	382	216	1
10	386	220	1
10	392	224	1
10	401	228	1
10	408	232	1
10	415	236	1
10	419	240	1
10	425	244	1
10	433	248	1
10	442	252	1
10	450	256	1
10	454	260	1
10	460	264	1
10	467	268	1
10	474	272	1
10	482	276	1
10	486	280	1
10	493	284	1
10	501	288	1
10	510	292	1
10	518	296	1
10	522	300	1
10	530	304	1
10	537	308	1
10	544	312	1
10	551	316	1
10	555	320	1
10	561	324	1
10	569	328	1
10	578	332	1
10	587	336	1
10	591	340	1
10	600	344	1
10	607	348	1
10	614	352	1
10	621	356	1
10	625	360	1
10	632	364	1
10	641	368	1
10	649	372	1
10	656	376	1
10	660	380	1
10	668	384	1
10	675	388	1
10	682	392	1
10	690	396	1
10	694	400	1
10	701	404	1
10	708	408	1
10	716	412	1
10	726	416	1
10	730	420	1
10	736	424	1
10	743	428	1
10	750	432	1
10	758	436	1
10	762	440	1
10	769	444	1
10	777	448	1
10	785	452	1
10	792	456	1
10	796	460	1
10	803	464	1
10	812	468	1
10	821	472	1
10	831	476	1
10	835	480	1
10	841	484	1
10	848	488	1
10	856	492	1
10	864	496	1
10	868	500	1
10	875	504	1
10	884	508	1
10	892	512	1
10	902	516	1
10	906	520	1
10	912	524	1
10	919	528	1
10	926	532	1
10	934	536	1
10	938	540	1
10	945	544	1
10	953	548	1
10	962	552	1
10	970	556	1
10	974	560	1
10	980	564	1
10	988	568	1
10	997	572	1
10	1006	576	1
10	1010	580	1
10	1018	584	1
10	1028	588	1
10	1035	592	1
10	1042	596	1
10	1046	600	1
10	1052	604	1
10	1059	608	1
10	1066	612	1
10	1074	616	1
10	1078	620	1
10	1087	624	1
10	1094	628	1
10	1101	632	1
10	1108	636	1
10	1112	640	1
10	1118	644	1
10	1125	648	1
10	1132	652	1
10	1140	656	1
10	1144	660	1
10	1152	664	1
10	1161	668	1
10	1169	672	1
10	1177	676	1
10	1181	680	1
10	1188	684	1
10	1196	688	1
10	1204	692	1
10	1212	696	1
10	1216	700	1
10	1223	704	1
10	1231	708	1
10	1240	712	1
10	1249	716	1
10	1253	720	1
10	1261	724	1
10	1270	728	1
10	1279	732	1
10	1289	736	1
10	1293	740	1
10	1299	744	1
10	1306	748	1
10	1313	752	1
10	1321	756	1
10	1325	760	1
10	1332	764	1
10	1341	768	1
10	1348	772	1
10	1355	776	1
10	1359	780	1
10	1366	784	1
10	1374	788	1
10	1382	792	1
10	1392	796	1
10	1396	800	1
10	1402	804	1
10	1409	808	1
10	1417	812	1
10	1427	816	1
10	1431	820	1
10	1437	824	1
10	1444	828	1
10	1451	832	1
10	1458	836	1
10	1462	840	1
10	1468	844	1
10	1475	848	1
10	1483	852	1
10	1491	856	1
10	1495	860	1
10	1502	864	1
10	1512	868	1
10	1519	872	1
10	1526	876	1
10	1530	880	1
10	1537	884	1
10	1563	896	1
10	1567	900	1
10	1573	904	1
10	1580	908	1
10	1588	912	1
10	1596	916	1
10	1600	920	1
10	1606	924	1
10	1614	928	1
10	1624	932	1
10	1632	936	1
10	1636	940	1
10	1643	944	1
10	1651	948	1
10	1659	952	1
10	1666	956	1
10	1670	960	1
10	1677	964	1
10	1695	972	1
10	1703	976	1
10	1707	980	1
10	1714	984	1
10	1723	988	1
10	1741	996	1
10	1745	1000	1
10	1752	1004	1
10	1759	1008	1
10	1767	1012	1
10	1776	1016	1
10	1780	1020	1
10	1797	1028	1
10	1807	1032	1
10	1815	1036	1
10	1819	1040	1
10	1826	1044	1
10	1834	1048	1
10	1843	1052	1
10	1851	1056	1
10	1855	1060	1
10	1862	1064	1
10	1871	1068	1
10	1879	1072	1
10	1887	1076	1
10	1891	1080	1
10	1907	1088	1
10	1914	1092	1
10	1921	1096	1
10	1925	1100	1
10	1932	1104	1
10	1942	1108	1
10	1949	1112	1
10	1956	1116	1
10	1960	1120	1
10	1966	1124	1
10	1973	1128	1
10	1982	1132	1
10	1989	1136	1
10	1993	1140	1
10	1999	1144	1
10	2006	1148	1
10	2013	1152	1
10	2020	1156	1
10	2024	1160	1
10	2030	1164	1
10	2038	1168	1
10	2047	1172	1
10	2056	1176	1
10	2060	1180	1
10	2069	1184	1
10	2076	1188	1
10	2084	1192	1
10	2096	1200	1
10	2102	1204	1
10	2111	1208	1
10	2119	1212	1
10	2128	1216	1
10	2132	1220	1
10	2140	1224	1
10	2149	1228	1
10	2171	1240	1
10	2186	1248	1
10	2203	1256	1
10	2207	1260	1
10	2213	1264	1
10	2220	1268	1
10	2227	1272	1
10	2234	1276	1
10	2238	1280	1
10	2244	1284	1
10	2252	1288	1
10	2262	1292	1
10	2269	1296	1
10	2273	1300	1
10	2279	1304	1
10	2286	1308	1
10	2293	1312	1
10	2300	1316	1
10	2304	1320	1
10	2310	1324	1
10	2318	1328	1
10	2326	1332	1
10	2333	1336	1
10	2337	1340	1
10	2344	1344	1
10	2354	1348	1
10	2362	1352	1
10	2370	1356	1
10	2374	1360	1
10	2380	1364	1
10	2388	1368	1
10	2396	1372	1
10	2405	1376	1
10	2409	1380	1
10	2415	1384	1
10	2422	1388	1
10	2430	1392	1
10	2443	1400	1
10	2450	1404	1
10	2457	1408	1
10	2465	1412	1
10	2474	1416	1
10	2478	1420	1
10	2486	1424	1
10	2495	1428	1
10	2511	1436	1
10	2515	1440	1
10	2522	1444	1
10	2529	1448	1
10	2537	1452	1
10	2546	1456	1
10	2550	1460	1
10	2558	1464	1
10	2567	1468	1
10	2576	1472	1
10	2584	1476	1
10	2588	1480	1
10	2594	1484	1
10	2601	1488	1
10	2609	1492	1
10	2621	1500	1
10	2628	1504	1
10	2638	1508	1
10	2645	1512	1
10	2652	1516	1
10	2656	1520	1
10	2662	1524	1
10	2670	1528	1
10	2680	1532	1
10	2687	1536	1
10	2691	1540	1
10	2697	1544	1
10	2705	1548	1
10	2714	1552	1
10	2722	1556	1
10	2726	1560	1
10	2733	1564	1
10	2741	1568	1
10	2748	1572	1
10	2755	1576	1
10	2759	1580	1
10	2767	1584	1
10	2775	1588	1
10	2791	1596	1
10	2795	1600	1
10	2802	1604	1
10	2809	1608	1
10	2817	1612	1
10	2826	1616	1
10	2830	1620	1
10	2847	1628	1
10	2856	1632	1
10	2864	1636	1
10	2868	1640	1
10	2874	1644	1
10	2883	1648	1
10	2890	1652	1
10	2897	1656	1
10	2901	1660	1
10	2908	1664	1
10	2918	1668	1
10	2925	1672	1
10	2932	1676	1
10	2936	1680	1
10	2942	1684	1
10	2950	1688	1
10	2967	1696	1
10	2971	1700	1
10	2977	1704	1
10	2984	1708	1
10	2992	1712	1
10	3004	1720	1
10	3012	1724	1
10	3019	1728	1
10	3026	1732	1
10	3033	1736	1
10	3037	1740	1
10	3044	1744	1
10	3054	1748	1
10	3061	1752	1
10	3069	1756	1
10	3073	1760	1
10	3080	1764	1
10	3087	1768	1
10	3094	1772	1
10	3102	1776	1
10	3106	1780	1
10	3113	1784	1
10	3120	1788	1
10	3128	1792	1
10	3140	1800	1
10	3146	1804	1
10	3154	1808	1
10	3163	1812	1
10	3176	1820	1
10	3185	1824	1
10	3192	1828	1
10	3199	1832	1
10	3207	1836	1
10	3211	1840	1
10	3218	1844	1
10	3225	1848	1
10	3234	1852	1
10	3241	1856	1
10	3245	1860	1
10	3251	1864	1
10	3259	1868	1
10	3268	1872	1
10	3277	1876	1
10	3281	1880	1
10	3288	1884	1
10	3297	1888	1
10	3304	1892	1
10	3311	1896	1
10	3315	1900	1
10	3321	1904	1
10	3328	1908	1
10	3336	1912	1
10	3344	1916	1
10	3348	1920	1
10	3356	1924	1
10	3363	1928	1
10	3371	1932	1
10	3380	1936	1
10	3384	1940	1
10	3392	1944	1
10	3419	1956	1
10	3423	1960	1
10	3437	1968	1
10	3446	1972	1
10	3453	1976	1
10	3457	1980	1
10	3463	1984	1
10	3470	1988	1
10	3478	1992	1
10	3486	1996	1
10	3490	2000	1
10	3496	2004	1
10	3503	2008	1
10	3511	2012	1
10	3519	2016	1
10	3523	2020	1
10	3529	2024	1
10	3537	2028	1
10	3545	2032	1
10	3553	2036	1
10	3557	2040	1
10	3574	2048	1
10	3595	2060	1
10	3601	2064	1
10	3609	2068	1
10	3627	2076	1
10	3631	2080	1
10	3637	2084	1
10	3644	2088	1
10	3652	2092	1
10	3664	2100	1
10	3670	2104	1
10	3678	2108	1
10	3697	2116	1
10	3701	2120	1
10	3707	2124	1
10	3715	2128	1
10	3724	2132	1
10	3733	2136	1
10	3737	2140	1
10	3752	2148	1
10	3761	2152	1
10	3775	2160	1
10	3781	2164	1
10	3788	2168	1
10	3796	2172	1
10	3804	2176	1
10	3808	2180	1
10	3816	2184	1
10	3824	2188	1
10	3845	2200	1
10	3851	2204	1
10	3859	2208	1
10	3876	2216	1
10	3880	2220	1
10	3887	2224	1
10	3902	2232	1
10	3910	2236	1
10	3914	2240	1
10	3928	2248	1
10	3935	2252	1
10	3942	2256	1
10	3946	2260	1
10	3952	2264	1
10	3959	2268	1
10	3967	2272	1
10	3980	2280	1
10	3995	2288	1
10	4004	2292	1
10	4014	2296	1
10	4018	2300	1
10	4024	2304	1
10	4031	2308	1
10	4038	2312	1
10	4047	2316	1
10	4051	2320	1
10	4057	2324	1
10	4064	2328	1
10	4071	2332	1
10	4079	2336	1
10	4083	2340	1
10	4090	2344	1
10	4097	2348	1
10	4104	2352	1
10	4113	2356	1
10	4117	2360	1
10	4124	2364	1
10	4139	2372	1
10	4146	2376	1
10	4150	2380	1
10	4157	2384	1
10	4166	2388	1
10	4175	2392	1
10	4184	2396	1
10	4188	2400	1
10	4196	2404	1
10	4204	2408	1
10	4213	2412	1
10	4221	2416	1
10	4225	2420	1
10	4232	2424	1
10	4239	2428	1
10	4248	2432	1
10	4256	2436	1
10	4260	2440	1
10	4267	2444	1
10	4275	2448	1
10	4283	2452	1
10	4291	2456	1
10	4295	2460	1
10	4304	2464	1
10	4311	2468	1
10	4319	2472	1
10	4332	2480	1
10	4346	2488	1
10	4354	2492	1
10	4365	2496	1
10	4369	2500	1
10	4375	2504	1
10	4382	2508	1
10	4389	2512	1
10	4396	2516	1
10	4400	2520	1
10	4406	2524	1
10	4414	2528	1
10	4430	2536	1
10	4434	2540	1
10	4451	2548	1
10	4473	2560	1
10	4497	2572	1
10	4510	2580	1
10	4525	2588	1
10	4546	2600	1
10	4552	2604	1
10	4560	2608	1
10	4582	2620	1
10	4590	2624	1
10	4598	2628	1
10	4606	2632	1
10	4616	2636	1
10	4620	2640	1
10	4626	2644	1
10	4633	2648	1
10	4642	2652	1
10	4649	2656	1
10	4653	2660	1
10	4659	2664	1
10	4666	2668	1
10	4673	2672	1
10	4681	2676	1
10	4685	2680	1
10	4701	2688	1
10	4708	2692	1
10	4715	2696	1
10	4719	2700	1
10	4726	2704	1
10	4734	2708	1
10	4742	2712	1
10	4750	2716	1
10	4754	2720	1
10	4761	2724	1
10	4769	2728	1
10	4776	2732	1
10	4785	2736	1
10	4789	2740	1
10	4795	2744	1
10	4803	2748	1
10	4811	2752	1
10	4819	2756	1
10	4823	2760	1
10	4831	2764	1
10	4840	2768	1
10	4849	2772	1
10	4857	2776	1
10	4861	2780	1
10	4867	2784	1
10	4874	2788	1
10	4882	2792	1
10	4890	2796	1
10	4894	2800	1
10	4901	2804	1
10	4910	2808	1
10	4928	2816	1
10	4932	2820	1
10	4938	2824	1
10	4945	2828	1
10	4953	2832	1
10	4966	2840	1
10	4975	2844	1
10	4982	2848	1
10	4989	2852	1
10	4999	2856	1
10	5003	2860	1
10	5009	2864	1
10	5016	2868	1
10	5023	2872	1
10	5031	2876	1
10	5035	2880	1
10	5049	2888	1
10	5056	2892	1
10	5063	2896	1
10	5067	2900	1
10	5073	2904	1
10	5082	2908	1
10	5089	2912	1
10	5097	2916	1
10	5101	2920	1
10	5109	2924	1
10	5117	2928	1
10	5124	2932	1
10	5132	2936	1
10	5136	2940	1
10	5144	2944	1
10	5153	2948	1
10	5172	2956	1
10	5176	2960	1
10	5182	2964	1
10	5189	2968	1
10	5197	2972	1
10	5206	2976	1
10	5210	2980	1
10	5218	2984	1
10	5236	2992	1
10	5243	2996	1
10	5247	3000	1
10	5253	3004	1
10	5260	3008	1
10	5267	3012	1
10	5274	3016	1
10	5278	3020	1
10	5286	3024	1
10	5293	3028	1
10	5300	3032	1
10	5309	3036	1
10	5313	3040	1
10	5319	3044	1
10	5326	3048	1
10	5333	3052	1
10	5340	3056	1
10	5344	3060	1
10	5351	3064	1
10	5360	3068	1
10	5370	3072	1
10	5377	3076	1
10	5381	3080	1
10	5387	3084	1
10	5394	3088	1
10	5403	3092	1
10	5410	3096	1
10	5414	3100	1
10	5420	3104	1
10	5428	3108	1
10	5446	3116	1
10	5450	3120	1
10	5467	3128	1
10	5484	3136	1
10	5488	3140	1
10	5494	3144	1
10	5503	3148	1
10	5510	3152	1
10	5517	3156	1
10	5521	3160	1
10	5527	3164	1
10	5534	3168	1
10	5542	3172	1
10	5554	3180	1
10	5560	3184	1
10	5567	3188	1
10	5574	3192	1
10	5583	3196	1
10	5587	3200	1
10	5593	3204	1
10	5600	3208	1
10	5608	3212	1
10	5616	3216	1
10	5620	3220	1
10	5627	3224	1
10	5635	3228	1
10	5643	3232	1
10	5655	3240	1
10	5662	3244	1
10	5679	3252	1
10	5687	3256	1
10	5691	3260	1
10	5708	3268	1
10	5717	3272	1
10	5727	3276	1
10	5731	3280	1
10	5737	3284	1
10	5744	3288	1
10	5751	3292	1
10	5759	3296	1
10	5763	3300	1
10	5778	3308	1
10	5799	3320	1
10	5807	3324	1
10	5815	3328	1
10	5836	3340	1
10	5842	3344	1
10	5850	3348	1
10	5873	3360	1
10	5880	3364	1
10	5888	3368	1
10	5896	3372	1
10	5905	3376	1
10	5909	3380	1
10	5918	3384	1
10	5925	3388	1
10	5932	3392	1
10	5939	3396	1
10	5943	3400	1
10	5949	3404	1
10	5958	3408	1
10	5966	3412	1
10	5978	3420	1
10	5984	3424	1
10	5991	3428	1
10	5999	3432	1
10	6011	3440	1
10	6018	3444	1
10	6050	3460	1
10	6056	3464	1
10	6063	3468	1
10	6070	3472	1
10	6077	3476	1
10	6081	3480	1
10	6087	3484	1
10	6094	3488	1
10	6101	3492	1
10	6108	3496	1
10	6112	3500	1
10	6118	3504	1
10	6125	3508	1
10	6132	3512	1
10	6140	3516	1
10	6144	3520	1
10	6151	3524	1
10	6159	3528	1
10	6168	3532	1
10	6178	3536	1
10	6182	3540	1
10	6189	3544	1
10	6197	3548	1
10	6204	3552	1
10	6213	3556	1
10	6217	3560	1
10	6223	3564	1
10	6230	3568	1
10	6238	3572	1
10	6246	3576	1
10	6250	3580	1
10	6256	3584	1
10	6263	3588	1
10	6270	3592	1
10	6278	3596	1
10	6282	3600	1
11	46	28	1
11	53	32	1
11	60	36	1
11	64	40	1
11	70	44	1
11	80	48	1
11	87	52	1
11	94	56	1
11	98	60	1
11	104	64	1
11	111	68	1
11	118	72	1
11	125	76	1
11	129	80	1
11	136	84	1
11	154	92	1
11	167	100	1
11	191	112	1
11	204	120	1
11	220	128	1
11	227	132	1
11	234	136	1
11	238	140	1
11	245	144	1
11	261	152	1
11	274	160	1
11	289	168	1
11	305	176	1
11	309	180	1
11	317	184	1
11	326	188	1
11	348	200	1
11	355	204	1
11	363	208	1
11	373	212	1
11	380	216	1
11	384	220	1
11	390	224	1
11	399	228	1
11	406	232	1
11	413	236	1
11	417	240	1
11	423	244	1
11	431	248	1
11	448	256	1
11	452	260	1
11	458	264	1
11	465	268	1
11	472	272	1
11	480	276	1
11	484	280	1
11	499	288	1
11	508	292	1
11	520	300	1
11	528	304	1
11	535	308	1
11	542	312	1
11	549	316	1
11	553	320	1
11	559	324	1
11	567	328	1
11	589	340	1
11	598	344	1
11	605	348	1
11	612	352	1
11	619	356	1
11	623	360	1
11	630	364	1
11	639	368	1
11	647	372	1
11	654	376	1
11	658	380	1
11	666	384	1
11	673	388	1
11	680	392	1
11	688	396	1
11	692	400	1
11	706	408	1
11	714	412	1
11	724	416	1
11	728	420	1
11	734	424	1
11	741	428	1
11	748	432	1
11	756	436	1
11	760	440	1
11	767	444	1
11	775	448	1
11	790	456	1
11	794	460	1
11	801	464	1
11	810	468	1
11	833	480	1
11	839	484	1
11	846	488	1
11	854	492	1
11	862	496	1
11	866	500	1
11	873	504	1
11	890	512	1
11	900	516	1
11	904	520	1
11	910	524	1
11	917	528	1
11	924	532	1
11	932	536	1
11	936	540	1
11	943	544	1
11	951	548	1
11	960	552	1
11	968	556	1
11	972	560	1
11	978	564	1
11	986	568	1
11	995	572	1
11	1008	580	1
11	1016	584	1
11	1026	588	1
11	1033	592	1
11	1040	596	1
11	1044	600	1
11	1050	604	1
11	1057	608	1
11	1064	612	1
11	1072	616	1
11	1076	620	1
11	1092	628	1
11	1099	632	1
11	1106	636	1
11	1110	640	1
11	1116	644	1
11	1123	648	1
11	1130	652	1
11	1138	656	1
11	1142	660	1
11	1159	668	1
11	1175	676	1
11	1179	680	1
11	1186	684	1
11	1194	688	1
11	1210	696	1
11	1214	700	1
11	1229	708	1
11	1247	716	1
11	1251	720	1
11	1277	732	1
11	1287	736	1
11	1291	740	1
11	1297	744	1
11	1304	748	1
11	1311	752	1
11	1319	756	1
11	1323	760	1
11	1339	768	1
11	1346	772	1
11	1353	776	1
11	1357	780	1
11	1364	784	1
11	1372	788	1
11	1380	792	1
11	1394	800	1
11	1400	804	1
11	1407	808	1
11	1415	812	1
11	1425	816	1
11	1429	820	1
11	1435	824	1
11	1442	828	1
11	1449	832	1
11	1456	836	1
11	1460	840	1
11	1466	844	1
11	1473	848	1
11	1481	852	1
11	1493	860	1
11	1500	864	1
11	1510	868	1
11	1517	872	1
11	1524	876	1
11	1528	880	1
11	1535	884	1
11	1544	888	1
11	1552	892	1
11	1561	896	1
11	1565	900	1
11	1571	904	1
11	1578	908	1
11	1586	912	1
11	1594	916	1
11	1598	920	1
11	1604	924	1
11	1612	928	1
11	1630	936	1
11	1634	940	1
11	1649	948	1
11	1664	956	1
11	1668	960	1
11	1675	964	1
11	1684	968	1
11	1701	976	1
11	1705	980	1
11	1712	984	1
11	1731	992	1
11	1739	996	1
11	1743	1000	1
11	1750	1004	1
11	1757	1008	1
11	1765	1012	1
11	1774	1016	1
11	1778	1020	1
11	1786	1024	1
11	1795	1028	1
11	1805	1032	1
11	1813	1036	1
11	1817	1040	1
11	1832	1048	1
11	1853	1060	1
11	1860	1064	1
11	1885	1076	1
11	1889	1080	1
11	1898	1084	1
11	1905	1088	1
11	1912	1092	1
11	1919	1096	1
11	1923	1100	1
11	1930	1104	1
11	1940	1108	1
11	1947	1112	1
11	1954	1116	1
11	1958	1120	1
11	1964	1124	1
11	1971	1128	1
11	1980	1132	1
11	1987	1136	1
11	1991	1140	1
11	1997	1144	1
11	2004	1148	1
11	2011	1152	1
11	2018	1156	1
11	2022	1160	1
11	2028	1164	1
11	2036	1168	1
11	2058	1180	1
11	2074	1188	1
11	2082	1192	1
11	2090	1196	1
11	2094	1200	1
11	2100	1204	1
11	2109	1208	1
11	2117	1212	1
11	2130	1220	1
11	2156	1232	1
11	2165	1236	1
11	2169	1240	1
11	2176	1244	1
11	2184	1248	1
11	2194	1252	1
11	2201	1256	1
11	2205	1260	1
11	2211	1264	1
11	2218	1268	1
11	2225	1272	1
11	2232	1276	1
11	2236	1280	1
11	2242	1284	1
11	2250	1288	1
11	2267	1296	1
11	2271	1300	1
11	2277	1304	1
11	2284	1308	1
11	2291	1312	1
11	2298	1316	1
11	2302	1320	1
11	2308	1324	1
11	2316	1328	1
11	2331	1336	1
11	2335	1340	1
11	2342	1344	1
11	2360	1352	1
11	2368	1356	1
11	2372	1360	1
11	2378	1364	1
11	2386	1368	1
11	2394	1372	1
11	2403	1376	1
11	2407	1380	1
11	2413	1384	1
11	2420	1388	1
11	2428	1392	1
11	2437	1396	1
11	2441	1400	1
11	2448	1404	1
11	2455	1408	1
11	2463	1412	1
11	2476	1420	1
11	2493	1428	1
11	2501	1432	1
11	2509	1436	1
11	2513	1440	1
11	2520	1444	1
11	2527	1448	1
11	2535	1452	1
11	2548	1460	1
11	2574	1472	1
11	2582	1476	1
11	2586	1480	1
11	2592	1484	1
11	2599	1488	1
11	2607	1492	1
11	2615	1496	1
11	2619	1500	1
11	2626	1504	1
11	2643	1512	1
11	2650	1516	1
11	2654	1520	1
11	2660	1524	1
11	2668	1528	1
11	2685	1536	1
11	2689	1540	1
11	2695	1544	1
11	2703	1548	1
11	2712	1552	1
11	2720	1556	1
11	2724	1560	1
11	2731	1564	1
11	2746	1572	1
11	2753	1576	1
11	2757	1580	1
11	2765	1584	1
11	2773	1588	1
11	2781	1592	1
11	2789	1596	1
11	2793	1600	1
11	2807	1608	1
11	2815	1612	1
11	2824	1616	1
11	2828	1620	1
11	2836	1624	1
11	2845	1628	1
11	2862	1636	1
11	2866	1640	1
11	2872	1644	1
11	2881	1648	1
11	2888	1652	1
11	2895	1656	1
11	2899	1660	1
11	2906	1664	1
11	2916	1668	1
11	2923	1672	1
11	2930	1676	1
11	2934	1680	1
11	2940	1684	1
11	2948	1688	1
11	2958	1692	1
11	2965	1696	1
11	2969	1700	1
11	2975	1704	1
11	2982	1708	1
11	2990	1712	1
11	2998	1716	1
11	3002	1720	1
11	3010	1724	1
11	3017	1728	1
11	3024	1732	1
11	3031	1736	1
11	3035	1740	1
11	3042	1744	1
11	3052	1748	1
11	3059	1752	1
11	3067	1756	1
11	3071	1760	1
11	3078	1764	1
11	3085	1768	1
11	3092	1772	1
11	3100	1776	1
11	3104	1780	1
11	3111	1784	1
11	3118	1788	1
11	3126	1792	1
11	3134	1796	1
11	3138	1800	1
11	3144	1804	1
11	3152	1808	1
11	3161	1812	1
11	3170	1816	1
11	3174	1820	1
11	3183	1824	1
11	3190	1828	1
11	3197	1832	1
11	3205	1836	1
11	3209	1840	1
11	3216	1844	1
11	3223	1848	1
11	3232	1852	1
11	3239	1856	1
11	3243	1860	1
11	3249	1864	1
11	3257	1868	1
11	3266	1872	1
11	3275	1876	1
11	3279	1880	1
11	3286	1884	1
11	3295	1888	1
11	3302	1892	1
11	3309	1896	1
11	3313	1900	1
11	3319	1904	1
11	3326	1908	1
11	3334	1912	1
11	3342	1916	1
11	3346	1920	1
11	3354	1924	1
11	3361	1928	1
11	3369	1932	1
11	3378	1936	1
11	3382	1940	1
11	3390	1944	1
11	3399	1948	1
11	3408	1952	1
11	3417	1956	1
11	3421	1960	1
11	3428	1964	1
11	3435	1968	1
11	3444	1972	1
11	3451	1976	1
11	3455	1980	1
11	3461	1984	1
11	3468	1988	1
11	3476	1992	1
11	3488	2000	1
11	3494	2004	1
11	3501	2008	1
11	3509	2012	1
11	3521	2020	1
11	3527	2024	1
11	3535	2028	1
11	3543	2032	1
11	3551	2036	1
11	3555	2040	1
11	3564	2044	1
11	3572	2048	1
11	3581	2052	1
11	3589	2056	1
11	3593	2060	1
11	3599	2064	1
11	3607	2068	1
11	3618	2072	1
11	3625	2076	1
11	3629	2080	1
11	3635	2084	1
11	3642	2088	1
11	3650	2092	1
11	3658	2096	1
11	3662	2100	1
11	3668	2104	1
11	3676	2108	1
11	3685	2112	1
11	3695	2116	1
11	3699	2120	1
11	3705	2124	1
11	3713	2128	1
11	3735	2140	1
11	3742	2144	1
11	3750	2148	1
11	3759	2152	1
11	3769	2156	1
11	3773	2160	1
11	3779	2164	1
11	3786	2168	1
11	3794	2172	1
11	3802	2176	1
11	3806	2180	1
11	3814	2184	1
11	3822	2188	1
11	3831	2192	1
11	3839	2196	1
11	3843	2200	1
11	3849	2204	1
11	3857	2208	1
11	3865	2212	1
11	3874	2216	1
11	3878	2220	1
11	3885	2224	1
11	3893	2228	1
11	3900	2232	1
11	3908	2236	1
11	3912	2240	1
11	3919	2244	1
11	3926	2248	1
11	3933	2252	1
11	3940	2256	1
11	3944	2260	1
11	3950	2264	1
11	3957	2268	1
11	3965	2272	1
11	3974	2276	1
11	3978	2280	1
11	3985	2284	1
11	3993	2288	1
11	4002	2292	1
11	4012	2296	1
11	4016	2300	1
11	4022	2304	1
11	4029	2308	1
11	4036	2312	1
11	4045	2316	1
11	4049	2320	1
11	4055	2324	1
11	4062	2328	1
11	4069	2332	1
11	4077	2336	1
11	4081	2340	1
11	4095	2348	1
11	4102	2352	1
11	4111	2356	1
11	4115	2360	1
11	4122	2364	1
11	4130	2368	1
11	4137	2372	1
11	4144	2376	1
11	4148	2380	1
11	4155	2384	1
11	4164	2388	1
11	4182	2396	1
11	4186	2400	1
11	4194	2404	1
11	4202	2408	1
11	4211	2412	1
11	4219	2416	1
11	4223	2420	1
11	4230	2424	1
11	4237	2428	1
11	4246	2432	1
11	4254	2436	1
11	4258	2440	1
11	4265	2444	1
11	4273	2448	1
11	4281	2452	1
11	4289	2456	1
11	4293	2460	1
11	4302	2464	1
11	4309	2468	1
11	4317	2472	1
11	4326	2476	1
11	4330	2480	1
11	4337	2484	1
11	4344	2488	1
11	4352	2492	1
11	4363	2496	1
11	4367	2500	1
11	4373	2504	1
11	4380	2508	1
11	4387	2512	1
11	4394	2516	1
11	4398	2520	1
11	4404	2524	1
11	4412	2528	1
11	4420	2532	1
11	4428	2536	1
11	4432	2540	1
11	4440	2544	1
11	4449	2548	1
11	4458	2552	1
11	4467	2556	1
11	4471	2560	1
11	4479	2564	1
11	4487	2568	1
11	4495	2572	1
11	4504	2576	1
11	4508	2580	1
11	4515	2584	1
11	4523	2588	1
11	4532	2592	1
11	4540	2596	1
11	4544	2600	1
11	4550	2604	1
11	4558	2608	1
11	4567	2612	1
11	4576	2616	1
11	4580	2620	1
11	4588	2624	1
11	4604	2632	1
11	4618	2640	1
11	4624	2644	1
11	4631	2648	1
11	4640	2652	1
11	4647	2656	1
11	4651	2660	1
11	4657	2664	1
11	4664	2668	1
11	4671	2672	1
11	4679	2676	1
11	4683	2680	1
11	4692	2684	1
11	4699	2688	1
11	4706	2692	1
11	4713	2696	1
11	4717	2700	1
11	4724	2704	1
11	4732	2708	1
11	4740	2712	1
11	4748	2716	1
11	4752	2720	1
11	4759	2724	1
11	4767	2728	1
11	4774	2732	1
11	4783	2736	1
11	4787	2740	1
11	4793	2744	1
11	4801	2748	1
11	4809	2752	1
11	4817	2756	1
11	4821	2760	1
11	4829	2764	1
11	4838	2768	1
11	4847	2772	1
11	4855	2776	1
11	4859	2780	1
11	4865	2784	1
11	4872	2788	1
11	4880	2792	1
11	4888	2796	1
11	4892	2800	1
11	4899	2804	1
11	4908	2808	1
11	4919	2812	1
11	4926	2816	1
11	4930	2820	1
11	4936	2824	1
11	4943	2828	1
11	4951	2832	1
11	4960	2836	1
11	4964	2840	1
11	4980	2848	1
11	4987	2852	1
11	4997	2856	1
11	5001	2860	1
11	5007	2864	1
11	5014	2868	1
11	5021	2872	1
11	5029	2876	1
11	5033	2880	1
11	5040	2884	1
11	5047	2888	1
11	5054	2892	1
11	5061	2896	1
11	5065	2900	1
11	5071	2904	1
11	5080	2908	1
11	5087	2912	1
11	5095	2916	1
11	5099	2920	1
11	5107	2924	1
11	5115	2928	1
11	5122	2932	1
11	5130	2936	1
11	5134	2940	1
11	5142	2944	1
11	5151	2948	1
11	5160	2952	1
11	5174	2960	1
11	5180	2964	1
11	5187	2968	1
11	5195	2972	1
11	5208	2980	1
11	5227	2988	1
11	5234	2992	1
11	5241	2996	1
11	5245	3000	1
11	5251	3004	1
11	5258	3008	1
11	5265	3012	1
11	5272	3016	1
11	5276	3020	1
11	5284	3024	1
11	5291	3028	1
11	5298	3032	1
11	5307	3036	1
11	5311	3040	1
11	5317	3044	1
11	5324	3048	1
11	5331	3052	1
11	5338	3056	1
11	5342	3060	1
11	5349	3064	1
11	5358	3068	1
11	5368	3072	1
11	5375	3076	1
11	5379	3080	1
11	5385	3084	1
11	5392	3088	1
11	5401	3092	1
11	5408	3096	1
11	5412	3100	1
11	5418	3104	1
11	5426	3108	1
11	5435	3112	1
11	5444	3116	1
11	5448	3120	1
11	5456	3124	1
11	5465	3128	1
11	5475	3132	1
11	5482	3136	1
11	5486	3140	1
11	5492	3144	1
11	5501	3148	1
11	5508	3152	1
11	5515	3156	1
11	5519	3160	1
11	5525	3164	1
11	5532	3168	1
11	5540	3172	1
11	5548	3176	1
11	5552	3180	1
11	5558	3184	1
11	5565	3188	1
11	5572	3192	1
11	5581	3196	1
11	5585	3200	1
11	5591	3204	1
11	5598	3208	1
11	5606	3212	1
11	5618	3220	1
11	5625	3224	1
11	5641	3232	1
11	5649	3236	1
11	5653	3240	1
11	5660	3244	1
11	5669	3248	1
11	5685	3256	1
11	5689	3260	1
11	5697	3264	1
11	5706	3268	1
11	5715	3272	1
11	5729	3280	1
11	5735	3284	1
11	5742	3288	1
11	5749	3292	1
11	5757	3296	1
11	5761	3300	1
11	5768	3304	1
11	5776	3308	1
11	5785	3312	1
11	5793	3316	1
11	5797	3320	1
11	5805	3324	1
11	5813	3328	1
11	5822	3332	1
11	5830	3336	1
11	5834	3340	1
11	5840	3344	1
11	5848	3348	1
11	5857	3352	1
11	5867	3356	1
11	5871	3360	1
11	5878	3364	1
11	5886	3368	1
11	5894	3372	1
11	5903	3376	1
11	5907	3380	1
11	5916	3384	1
11	5923	3388	1
11	5930	3392	1
11	5937	3396	1
11	5941	3400	1
11	5947	3404	1
11	5956	3408	1
11	5964	3412	1
11	5972	3416	1
11	5976	3420	1
11	5982	3424	1
11	5989	3428	1
11	5997	3432	1
11	6005	3436	1
11	6009	3440	1
11	6016	3444	1
11	6025	3448	1
11	6034	3452	1
11	6044	3456	1
11	6048	3460	1
11	6054	3464	1
11	6061	3468	1
11	6068	3472	1
11	6075	3476	1
11	6079	3480	1
11	6085	3484	1
11	6092	3488	1
11	6099	3492	1
11	6106	3496	1
11	6110	3500	1
11	6116	3504	1
11	6123	3508	1
11	6130	3512	1
11	6138	3516	1
11	6142	3520	1
11	6149	3524	1
11	6157	3528	1
11	6180	3540	1
11	6187	3544	1
11	6202	3552	1
11	6211	3556	1
11	6215	3560	1
11	6221	3564	1
11	6228	3568	1
11	6236	3572	1
11	6244	3576	1
11	6248	3580	1
11	6254	3584	1
11	6261	3588	1
11	6268	3592	1
11	6276	3596	1
11	6280	3600	1
12	47	28	1
12	54	32	1
12	61	36	1
12	65	40	1
12	71	44	1
12	81	48	1
12	88	52	1
12	95	56	1
12	99	60	1
12	105	64	1
12	112	68	1
12	119	72	1
12	126	76	1
12	130	80	1
12	137	84	1
12	147	88	1
12	155	92	1
12	164	96	1
12	168	100	1
12	176	104	1
12	184	108	1
12	192	112	1
12	201	116	1
12	205	120	1
12	212	124	1
12	221	128	1
12	228	132	1
12	235	136	1
12	239	140	1
12	246	144	1
12	254	148	1
12	262	152	1
12	271	156	1
12	275	160	1
12	282	164	1
12	290	168	1
12	298	172	1
12	306	176	1
12	310	180	1
12	336	192	1
12	345	196	1
12	349	200	1
12	364	208	1
12	381	216	1
12	385	220	1
12	391	224	1
12	400	228	1
12	407	232	1
12	414	236	1
12	418	240	1
12	424	244	1
12	432	248	1
12	441	252	1
12	453	260	1
12	459	264	1
12	466	268	1
12	473	272	1
12	481	276	1
12	485	280	1
12	492	284	1
12	500	288	1
12	517	296	1
12	521	300	1
12	529	304	1
12	536	308	1
12	543	312	1
12	550	316	1
12	554	320	1
12	560	324	1
12	568	328	1
12	577	332	1
12	586	336	1
12	590	340	1
12	606	348	1
12	613	352	1
12	620	356	1
12	624	360	1
12	631	364	1
12	655	376	1
12	659	380	1
12	667	384	1
12	674	388	1
12	681	392	1
12	689	396	1
12	693	400	1
12	700	404	1
12	707	408	1
12	715	412	1
12	729	420	1
12	735	424	1
12	742	428	1
12	749	432	1
12	757	436	1
12	761	440	1
12	776	448	1
12	784	452	1
12	791	456	1
12	795	460	1
12	802	464	1
12	820	472	1
12	830	476	1
12	834	480	1
12	840	484	1
12	847	488	1
12	855	492	1
12	867	500	1
12	874	504	1
12	883	508	1
12	901	516	1
12	905	520	1
12	911	524	1
12	918	528	1
12	925	532	1
12	933	536	1
12	937	540	1
12	952	548	1
12	973	560	1
12	979	564	1
12	987	568	1
12	1005	576	1
12	1009	580	1
12	1034	592	1
12	1041	596	1
12	1045	600	1
12	1051	604	1
12	1058	608	1
12	1065	612	1
12	1073	616	1
12	1077	620	1
12	1086	624	1
12	1093	628	1
12	1100	632	1
12	1107	636	1
12	1111	640	1
12	1117	644	1
12	1124	648	1
12	1131	652	1
12	1139	656	1
12	1143	660	1
12	1151	664	1
12	1168	672	1
12	1176	676	1
12	1180	680	1
12	1195	688	1
12	1203	692	1
12	1211	696	1
12	1215	700	1
12	1222	704	1
12	1230	708	1
12	1239	712	1
12	1252	720	1
12	1260	724	1
12	1269	728	1
12	1292	740	1
12	1298	744	1
12	1305	748	1
12	1312	752	1
12	1320	756	1
12	1324	760	1
12	1331	764	1
12	1340	768	1
12	1347	772	1
12	1354	776	1
12	1358	780	1
12	1365	784	1
12	1381	792	1
12	1391	796	1
12	1395	800	1
12	1401	804	1
12	1408	808	1
12	1416	812	1
12	1430	820	1
12	1436	824	1
12	1443	828	1
12	1450	832	1
12	1457	836	1
12	1461	840	1
12	1467	844	1
12	1474	848	1
12	1482	852	1
12	1490	856	1
12	1494	860	1
12	1501	864	1
12	1518	872	1
12	1525	876	1
12	1529	880	1
12	1536	884	1
12	1545	888	1
12	1553	892	1
12	1562	896	1
12	1566	900	1
12	1572	904	1
12	1579	908	1
12	1587	912	1
12	1599	920	1
12	1605	924	1
12	1613	928	1
12	1623	932	1
12	1631	936	1
12	1635	940	1
12	1642	944	1
12	1650	948	1
12	1658	952	1
12	1665	956	1
12	1669	960	1
12	1676	964	1
12	1685	968	1
12	1694	972	1
12	1706	980	1
12	1713	984	1
12	1722	988	1
12	1732	992	1
12	1740	996	1
12	1744	1000	1
12	1758	1008	1
12	1766	1012	1
12	1779	1020	1
12	1787	1024	1
12	1814	1036	1
12	1818	1040	1
12	1825	1044	1
12	1833	1048	1
12	1842	1052	1
12	1850	1056	1
12	1854	1060	1
12	1861	1064	1
12	1870	1068	1
12	1878	1072	1
12	1886	1076	1
12	1890	1080	1
12	1899	1084	1
12	1906	1088	1
12	1913	1092	1
12	1920	1096	1
12	1924	1100	1
12	1931	1104	1
12	1948	1112	1
12	1955	1116	1
12	1959	1120	1
12	1965	1124	1
12	1972	1128	1
12	1981	1132	1
12	1988	1136	1
12	1992	1140	1
12	1998	1144	1
12	2005	1148	1
12	2012	1152	1
12	2019	1156	1
12	2023	1160	1
12	2029	1164	1
12	2037	1168	1
12	2046	1172	1
12	2055	1176	1
12	2059	1180	1
12	2068	1184	1
12	2075	1188	1
12	2083	1192	1
12	2091	1196	1
12	2095	1200	1
12	2101	1204	1
12	2110	1208	1
12	2118	1212	1
12	2127	1216	1
12	2131	1220	1
12	2139	1224	1
12	2148	1228	1
12	2157	1232	1
12	2166	1236	1
12	2170	1240	1
12	2177	1244	1
12	2185	1248	1
12	2195	1252	1
12	2202	1256	1
12	2206	1260	1
12	2212	1264	1
12	2219	1268	1
12	2226	1272	1
12	2233	1276	1
12	2237	1280	1
12	2243	1284	1
12	2251	1288	1
12	2261	1292	1
12	2268	1296	1
12	2272	1300	1
12	2278	1304	1
12	2285	1308	1
12	2292	1312	1
12	2299	1316	1
12	2303	1320	1
12	2309	1324	1
12	2317	1328	1
12	2325	1332	1
12	2332	1336	1
12	2336	1340	1
12	2343	1344	1
12	2353	1348	1
12	2361	1352	1
12	2373	1360	1
12	2379	1364	1
12	2387	1368	1
12	2404	1376	1
12	2408	1380	1
12	2414	1384	1
12	2421	1388	1
12	2429	1392	1
12	2438	1396	1
12	2442	1400	1
12	2456	1408	1
12	2464	1412	1
12	2473	1416	1
12	2477	1420	1
12	2485	1424	1
12	2502	1432	1
12	2510	1436	1
12	2514	1440	1
12	2528	1448	1
12	2536	1452	1
12	2545	1456	1
12	2549	1460	1
12	2557	1464	1
12	2566	1468	1
12	2587	1480	1
12	2593	1484	1
12	2600	1488	1
12	2608	1492	1
12	2616	1496	1
12	2620	1500	1
12	2627	1504	1
12	2637	1508	1
12	2644	1512	1
12	2651	1516	1
12	2655	1520	1
12	2661	1524	1
12	2669	1528	1
12	2679	1532	1
12	2686	1536	1
12	2690	1540	1
12	2696	1544	1
12	2704	1548	1
12	2725	1560	1
12	2732	1564	1
12	2740	1568	1
12	2747	1572	1
12	2754	1576	1
12	2758	1580	1
12	2766	1584	1
12	2774	1588	1
12	2782	1592	1
12	2790	1596	1
12	2794	1600	1
12	2801	1604	1
12	2808	1608	1
12	2816	1612	1
12	2829	1620	1
12	2837	1624	1
12	2855	1632	1
12	2867	1640	1
12	2873	1644	1
12	2882	1648	1
12	2889	1652	1
12	2896	1656	1
12	2900	1660	1
12	2907	1664	1
12	2924	1672	1
12	2931	1676	1
12	2935	1680	1
12	2941	1684	1
12	2949	1688	1
12	2959	1692	1
12	2966	1696	1
12	2970	1700	1
12	2976	1704	1
12	2983	1708	1
12	2991	1712	1
12	2999	1716	1
12	3003	1720	1
12	3011	1724	1
12	3018	1728	1
12	3025	1732	1
12	3032	1736	1
12	3036	1740	1
12	3043	1744	1
12	3060	1752	1
12	3068	1756	1
12	3072	1760	1
12	3086	1768	1
12	3093	1772	1
12	3101	1776	1
12	3105	1780	1
12	3119	1788	1
12	3127	1792	1
12	3135	1796	1
12	3139	1800	1
12	3145	1804	1
12	3153	1808	1
12	3171	1816	1
12	3175	1820	1
12	3191	1828	1
12	3198	1832	1
12	3206	1836	1
12	3210	1840	1
12	3224	1848	1
12	3233	1852	1
12	3240	1856	1
12	3244	1860	1
12	3250	1864	1
12	3258	1868	1
12	3280	1880	1
12	3296	1888	1
12	3303	1892	1
12	3310	1896	1
12	3314	1900	1
12	3320	1904	1
12	3327	1908	1
12	3335	1912	1
12	3347	1920	1
12	3355	1924	1
12	3362	1928	1
12	3370	1932	1
12	3383	1940	1
12	3400	1948	1
12	3409	1952	1
12	3422	1960	1
12	3429	1964	1
12	3436	1968	1
12	3445	1972	1
12	3452	1976	1
12	3456	1980	1
12	3462	1984	1
12	3469	1988	1
12	3477	1992	1
12	3485	1996	1
12	3489	2000	1
12	3495	2004	1
12	3502	2008	1
12	3510	2012	1
12	3518	2016	1
12	3522	2020	1
12	3528	2024	1
12	3536	2028	1
12	3552	2036	1
12	3556	2040	1
12	3565	2044	1
12	3573	2048	1
12	3582	2052	1
12	3590	2056	1
12	3594	2060	1
12	3600	2064	1
12	3608	2068	1
12	3619	2072	1
12	3626	2076	1
12	3630	2080	1
12	3636	2084	1
12	3643	2088	1
12	3651	2092	1
12	3659	2096	1
12	3663	2100	1
12	3669	2104	1
12	3677	2108	1
12	3686	2112	1
12	3700	2120	1
12	3706	2124	1
12	3714	2128	1
12	3723	2132	1
12	3732	2136	1
12	3736	2140	1
12	3743	2144	1
12	3751	2148	1
12	3770	2156	1
12	3774	2160	1
12	3780	2164	1
12	3787	2168	1
12	3795	2172	1
12	3807	2180	1
12	3815	2184	1
12	3823	2188	1
12	3832	2192	1
12	3840	2196	1
12	3844	2200	1
12	3850	2204	1
12	3858	2208	1
12	3866	2212	1
12	3875	2216	1
12	3879	2220	1
12	3886	2224	1
12	3894	2228	1
12	3901	2232	1
12	3909	2236	1
12	3913	2240	1
12	3920	2244	1
12	3927	2248	1
12	3934	2252	1
12	3941	2256	1
12	3945	2260	1
12	3951	2264	1
12	3958	2268	1
12	3966	2272	1
12	3975	2276	1
12	3979	2280	1
12	3986	2284	1
12	3994	2288	1
12	4017	2300	1
12	4023	2304	1
12	4030	2308	1
12	4037	2312	1
12	4046	2316	1
12	4050	2320	1
12	4056	2324	1
12	4063	2328	1
12	4070	2332	1
12	4078	2336	1
12	4082	2340	1
12	4089	2344	1
12	4096	2348	1
12	4103	2352	1
12	4112	2356	1
12	4116	2360	1
12	4123	2364	1
12	4131	2368	1
12	4138	2372	1
12	4145	2376	1
12	4149	2380	1
12	4156	2384	1
12	4174	2392	1
12	4187	2400	1
12	4212	2412	1
12	4220	2416	1
12	4224	2420	1
12	4238	2428	1
12	4247	2432	1
12	4255	2436	1
12	4259	2440	1
12	4274	2448	1
12	4290	2456	1
12	4294	2460	1
12	4310	2468	1
12	4318	2472	1
12	4327	2476	1
12	4331	2480	1
12	4338	2484	1
12	4345	2488	1
12	4353	2492	1
12	4368	2500	1
12	4374	2504	1
12	4381	2508	1
12	4388	2512	1
12	4395	2516	1
12	4399	2520	1
12	4405	2524	1
12	4413	2528	1
12	4421	2532	1
12	4429	2536	1
12	4433	2540	1
12	4441	2544	1
12	4459	2552	1
12	4468	2556	1
12	4472	2560	1
12	4480	2564	1
12	4488	2568	1
12	4496	2572	1
12	4505	2576	1
12	4509	2580	1
12	4516	2584	1
12	4524	2588	1
12	4533	2592	1
12	4541	2596	1
12	4545	2600	1
12	4551	2604	1
12	4559	2608	1
12	4568	2612	1
12	4577	2616	1
12	4581	2620	1
12	4597	2628	1
12	4605	2632	1
12	4615	2636	1
12	4619	2640	1
12	4625	2644	1
12	4632	2648	1
12	4641	2652	1
12	4648	2656	1
12	4652	2660	1
12	4658	2664	1
12	4665	2668	1
12	4672	2672	1
12	4680	2676	1
12	4684	2680	1
12	4693	2684	1
12	4700	2688	1
12	4707	2692	1
12	4714	2696	1
12	4718	2700	1
12	4725	2704	1
12	4741	2712	1
12	4753	2720	1
12	4760	2724	1
12	4775	2732	1
12	4784	2736	1
12	4788	2740	1
12	4794	2744	1
12	4802	2748	1
12	4818	2756	1
12	4822	2760	1
12	4860	2780	1
12	4866	2784	1
12	4873	2788	1
12	4881	2792	1
12	4893	2800	1
12	4900	2804	1
12	4920	2812	1
12	4927	2816	1
12	4931	2820	1
12	4937	2824	1
12	4944	2828	1
12	4952	2832	1
12	4961	2836	1
12	4965	2840	1
12	4974	2844	1
12	4981	2848	1
12	4988	2852	1
12	4998	2856	1
12	5002	2860	1
12	5008	2864	1
12	5015	2868	1
12	5022	2872	1
12	5030	2876	1
12	5034	2880	1
12	5041	2884	1
12	5048	2888	1
12	5055	2892	1
12	5062	2896	1
12	5066	2900	1
12	5072	2904	1
12	5081	2908	1
12	5088	2912	1
12	5096	2916	1
12	5100	2920	1
12	5123	2932	1
12	5131	2936	1
12	5135	2940	1
12	5161	2952	1
12	5171	2956	1
12	5175	2960	1
12	5181	2964	1
12	5188	2968	1
12	5196	2972	1
12	5205	2976	1
12	5209	2980	1
12	5217	2984	1
12	5228	2988	1
12	5235	2992	1
12	5242	2996	1
12	5246	3000	1
12	5252	3004	1
12	5259	3008	1
12	5266	3012	1
12	5273	3016	1
12	5277	3020	1
12	5285	3024	1
12	5292	3028	1
12	5299	3032	1
12	5308	3036	1
12	5312	3040	1
12	5318	3044	1
12	5325	3048	1
12	5332	3052	1
12	5339	3056	1
12	5343	3060	1
12	5350	3064	1
12	5376	3076	1
12	5380	3080	1
12	5386	3084	1
12	5393	3088	1
12	5402	3092	1
12	5409	3096	1
12	5413	3100	1
12	5419	3104	1
12	5427	3108	1
12	5436	3112	1
12	5449	3120	1
12	5457	3124	1
12	5476	3132	1
12	5483	3136	1
12	5487	3140	1
12	5493	3144	1
12	5502	3148	1
12	5509	3152	1
12	5516	3156	1
12	5520	3160	1
12	5526	3164	1
12	5533	3168	1
12	5541	3172	1
12	5549	3176	1
12	5553	3180	1
12	5559	3184	1
12	5566	3188	1
12	5573	3192	1
12	5582	3196	1
12	5586	3200	1
12	5592	3204	1
12	5599	3208	1
12	5607	3212	1
12	5615	3216	1
12	5619	3220	1
12	5626	3224	1
12	5634	3228	1
12	5642	3232	1
12	5650	3236	1
12	5654	3240	1
12	5661	3244	1
12	5670	3248	1
12	5678	3252	1
12	5686	3256	1
12	5690	3260	1
12	5698	3264	1
12	5726	3276	1
12	5730	3280	1
12	5736	3284	1
12	5743	3288	1
12	5750	3292	1
12	5758	3296	1
12	5762	3300	1
12	5769	3304	1
12	5777	3308	1
12	5786	3312	1
12	5794	3316	1
12	5798	3320	1
12	5806	3324	1
12	5814	3328	1
12	5823	3332	1
12	5831	3336	1
12	5835	3340	1
12	5841	3344	1
12	5849	3348	1
12	5858	3352	1
12	5868	3356	1
12	5872	3360	1
12	5879	3364	1
12	5895	3372	1
12	5908	3380	1
12	5924	3388	1
12	5931	3392	1
12	5938	3396	1
12	5942	3400	1
12	5948	3404	1
12	5957	3408	1
12	5965	3412	1
12	5973	3416	1
12	5977	3420	1
12	5983	3424	1
12	5990	3428	1
12	5998	3432	1
12	6006	3436	1
12	6010	3440	1
12	6017	3444	1
12	6026	3448	1
12	6035	3452	1
12	6045	3456	1
12	6049	3460	1
12	6055	3464	1
12	6062	3468	1
12	6069	3472	1
12	6076	3476	1
12	6080	3480	1
12	6086	3484	1
12	6093	3488	1
12	6100	3492	1
12	6107	3496	1
12	6111	3500	1
12	6117	3504	1
12	6124	3508	1
12	6131	3512	1
12	6139	3516	1
12	6143	3520	1
12	6158	3528	1
12	6167	3532	1
12	6177	3536	1
12	6181	3540	1
12	6188	3544	1
12	6196	3548	1
12	6203	3552	1
12	6212	3556	1
12	6216	3560	1
12	6222	3564	1
12	6229	3568	1
12	6237	3572	1
12	6249	3580	1
12	6255	3584	1
12	6262	3588	1
12	6269	3592	1
12	6277	3596	1
12	6281	3600	1
13	1540	885	1
13	1549	890	1
13	1680	965	1
13	1726	990	1
13	1782	1020	1
13	1893	1080	1
13	2087	1195	1
13	2152	1230	1
13	2161	1235	1
13	2173	1240	1
13	2189	1250	1
13	2433	1395	1
13	2498	1430	1
13	2612	1495	1
13	2778	1590	1
13	2832	1620	1
13	2953	1690	1
13	2995	1715	1
13	3131	1795	1
13	3166	1815	1
13	3395	1945	1
13	3404	1950	1
13	3425	1960	1
13	3559	2040	1
13	3577	2050	1
13	3586	2055	1
13	3612	2070	1
13	3655	2095	1
13	3681	2110	1
13	3739	2140	1
13	3764	2155	1
13	3827	2190	1
13	3836	2195	1
13	3862	2210	1
13	3890	2225	1
13	3916	2240	1
13	3970	2275	1
13	3982	2280	1
13	4127	2365	1
13	4322	2475	1
13	4334	2480	1
13	4417	2530	1
13	4436	2540	1
13	4454	2550	1
13	4463	2555	1
13	4475	2560	1
13	4484	2565	1
13	4500	2575	1
13	4512	2580	1
13	4528	2590	1
13	4537	2595	1
13	4563	2610	1
13	4572	2615	1
13	4687	2680	1
13	4913	2810	1
13	4956	2835	1
13	5037	2880	1
13	5156	2950	1
13	5221	2985	1
13	5431	3110	1
13	5452	3120	1
13	5470	3130	1
13	5545	3175	1
13	5646	3235	1
13	5665	3245	1
13	5693	3260	1
13	5765	3300	1
13	5781	3310	1
13	5790	3315	1
13	5818	3330	1
13	5827	3335	1
13	5853	3350	1
13	5862	3355	1
13	5969	3415	1
13	6002	3435	1
13	6021	3445	1
13	6030	3450	1
13	6039	3455	1
14	1540	885	881
14	1549	890	882
14	1680	965	953
14	1726	990	974
14	1782	1020	1000
14	1893	1080	192
14	2087	1195	303
14	2152	1230	262
14	2161	1235	243
14	2173	1240	216
14	2189	1250	166
14	2433	1395	199
14	2498	1430	198
14	2612	1495	259
14	2778	1590	346
14	2832	1620	368
14	2953	1690	294
14	2995	1715	283
14	3131	1795	299
14	3166	1815	223
14	3395	1945	321
14	3404	1950	258
14	3425	1960	244
14	3559	2040	244
14	3577	2050	234
14	3586	2055	107
14	3612	2070	118
14	3655	2095	131
14	3681	2110	66
14	3739	2140	88
14	3764	2155	99
14	3827	2190	118
14	3836	2195	99
14	3862	2210	98
14	3890	2225	81
14	3916	2240	84
14	3970	2275	83
14	3982	2280	84
14	4127	2365	153
14	4322	2475	247
14	4334	2480	236
14	4417	2530	254
14	4436	2540	256
14	4454	2550	182
14	4463	2555	79
14	4475	2560	76
14	4484	2565	33
14	4500	2575	31
14	4512	2580	28
14	4528	2590	34
14	4537	2595	31
14	4563	2610	42
14	4572	2615	39
14	4687	2680	96
14	4913	2810	218
14	4956	2835	239
14	5037	2880	268
14	5156	2950	334
14	5221	2985	301
14	5431	3110	298
14	5452	3120	284
14	5470	3130	246
14	5545	3175	223
14	5646	3235	247
14	5665	3245	133
14	5693	3260	136
14	5765	3300	168
14	5781	3310	134
14	5790	3315	79
14	5818	3330	82
14	5827	3335	71
14	5853	3350	46
14	5862	3355	43
14	5969	3415	99
14	6002	3435	103
14	6021	3445	109
14	6030	3450	98
14	6039	3455	99
15	1540	885	1
15	1549	890	1
15	1680	965	1
15	1726	990	1
15	1782	1020	1
15	1893	1080	1
15	2087	1195	1
15	2152	1230	1
15	2161	1235	1
15	2173	1240	1
15	2189	1250	1
15	2433	1395	1
15	2498	1430	1
15	2612	1495	1
15	2778	1590	1
15	2832	1620	1
15	2953	1690	1
15	2995	1715	1
15	3131	1795	1
15	3166	1815	1
15	3395	1945	1
15	3404	1950	1
15	3425	1960	1
15	3559	2040	1
15	3577	2050	1
15	3586	2055	1
15	3612	2070	1
15	3655	2095	1
15	3681	2110	1
15	3739	2140	1
15	3764	2155	1
15	3827	2190	1
15	3836	2195	1
15	3862	2210	1
15	3890	2225	1
15	3916	2240	1
15	3970	2275	1
15	3982	2280	1
15	4127	2365	1
15	4322	2475	1
15	4334	2480	1
15	4417	2530	1
15	4436	2540	1
15	4454	2550	1
15	4463	2555	1
15	4475	2560	1
15	4484	2565	1
15	4500	2575	1
15	4512	2580	1
15	4528	2590	1
15	4537	2595	1
15	4563	2610	1
15	4572	2615	1
15	4687	2680	1
15	4913	2810	1
15	4956	2835	1
15	5037	2880	1
15	5156	2950	1
15	5221	2985	1
15	5431	3110	1
15	5452	3120	1
15	5470	3130	1
15	5545	3175	1
15	5646	3235	1
15	5665	3245	1
15	5693	3260	1
15	5765	3300	1
15	5781	3310	1
15	5790	3315	1
15	5818	3330	1
15	5827	3335	1
15	5853	3350	1
15	5862	3355	1
15	5969	3415	1
15	6002	3435	1
15	6021	3445	1
15	6030	3450	1
15	6039	3455	1

