version 2
run FourthVerification-1-20201214-15:14:40-220613
attr configname FourthVerification
attr datetime 20201214-15:14:40
attr experiment FourthVerification
attr inifile omnetpp.ini
attr iterationvars "$0=2, $1=0.4"
attr iterationvarsf 2,0.4-
attr measurement "$0=2, $1=0.4"
attr network slottedNetwork
attr processid 220613
attr repetition 0
attr replication #0
attr resultdir results
attr runnumber 1
attr seedset 1
param **.numTransmitters 2
param **.numChannels 1
param **.bufferSize 5
param **.sendProbability 0.4
param **.expMean 4s
param **.timeSlotSize 5s
param **.thresh 20s
param **.deterministicInterarrivalTime true
param **.numTransmitters 1
param **.numChannels 1
param **.bufferSize 5
param **.sendProbability 1
param **.expMean 5s
param **.timeSlotSize 5s
param **.thresh 20s
param **.deterministicInterarrivalTime false

vector 0 slottedNetwork.transmitters[0] numPacketCreated:vector ETV
attr source numPacketCreatedSignal
vector 1 slottedNetwork.transmitters[1] numPacketCreated:vector ETV
attr source numPacketCreatedSignal
vector 2 slottedNetwork.ch throughput:vector ETV
attr source throughputSignal
vector 3 slottedNetwork.transmitters[0] numPacketDiscarded:vector ETV
attr source numPacketDiscardedSignal
vector 4 slottedNetwork.transmitters[1] numPacketDiscarded:vector ETV
attr source numPacketDiscardedSignal
vector 5 slottedNetwork.receivers[0] numPacketReceived:vector ETV
attr source numPacketReceivedSignal
vector 6 slottedNetwork.receivers[0] responseTime:vector ETV
attr source responseTimeSignal
vector 7 slottedNetwork.receivers[0] threshold:vector ETV
attr source thresholdSignal
vector 8 slottedNetwork.receivers[1] numPacketReceived:vector ETV
attr source numPacketReceivedSignal
vector 9 slottedNetwork.receivers[1] responseTime:vector ETV
attr source responseTimeSignal
vector 10 slottedNetwork.receivers[1] threshold:vector ETV
attr source thresholdSignal
0	1	4	1
0	8	8	1
0	13	12	1
0	18	16	1
0	21	20	1
0	25	24	1
0	31	28	1
0	38	32	1
0	44	36	1
0	47	40	1
0	52	44	1
0	58	48	1
0	63	52	1
0	68	56	1
0	71	60	1
0	76	64	1
0	82	68	1
0	87	72	1
0	94	76	1
0	97	80	1
0	101	84	1
0	106	88	1
0	111	92	1
0	116	96	1
0	119	100	1
0	123	104	1
0	129	108	1
0	137	112	1
0	142	116	1
0	145	120	1
0	149	124	1
0	154	128	1
0	160	132	1
0	166	136	1
0	169	140	1
0	174	144	1
0	181	148	1
0	188	152	1
0	196	156	1
0	199	160	1
0	203	164	1
0	208	168	1
0	213	172	1
0	218	176	1
0	221	180	1
0	225	184	1
0	232	188	1
0	237	192	1
0	242	196	1
0	245	200	1
0	249	204	1
0	254	208	1
0	259	212	1
0	264	216	1
0	267	220	1
0	272	224	1
0	278	228	1
0	283	232	1
0	288	236	1
0	291	240	1
0	295	244	1
0	301	248	1
0	307	252	1
0	314	256	1
0	317	260	1
0	321	264	1
0	326	268	1
0	331	272	1
0	336	276	1
0	339	280	1
0	344	284	1
0	351	288	1
0	357	292	1
0	363	296	1
0	366	300	1
0	372	304	1
0	378	308	1
0	383	312	1
0	388	316	1
0	391	320	1
0	395	324	1
0	400	328	1
0	405	332	1
0	412	336	1
0	415	340	1
0	419	344	1
0	424	348	1
0	429	352	1
0	435	356	1
0	438	360	1
0	444	364	1
0	450	368	1
0	455	372	1
0	460	376	1
0	463	380	1
0	468	384	1
0	474	388	1
0	481	392	1
0	486	396	1
0	489	400	1
0	493	404	1
0	498	408	1
0	503	412	1
0	508	416	1
0	511	420	1
0	515	424	1
0	521	428	1
0	528	432	1
0	535	436	1
0	538	440	1
0	544	444	1
0	550	448	1
0	555	452	1
0	560	456	1
0	563	460	1
0	567	464	1
0	572	468	1
0	577	472	1
0	582	476	1
0	585	480	1
0	589	484	1
0	594	488	1
0	599	492	1
0	604	496	1
0	607	500	1
0	611	504	1
0	616	508	1
0	621	512	1
0	626	516	1
0	629	520	1
0	634	524	1
0	640	528	1
0	645	532	1
0	650	536	1
0	653	540	1
0	658	544	1
0	664	548	1
0	670	552	1
0	676	556	1
0	679	560	1
0	684	564	1
0	690	568	1
0	695	572	1
0	701	576	1
0	704	580	1
0	709	584	1
0	714	588	1
0	719	592	1
0	724	596	1
0	727	600	1
0	732	604	1
0	739	608	1
0	746	612	1
0	752	616	1
0	755	620	1
0	760	624	1
0	766	628	1
0	771	632	1
0	778	636	1
0	781	640	1
0	785	644	1
0	790	648	1
0	796	652	1
0	803	656	1
0	806	660	1
0	812	664	1
0	819	668	1
0	826	672	1
0	832	676	1
0	835	680	1
0	841	684	1
0	846	688	1
0	851	692	1
0	856	696	1
0	859	700	1
0	864	704	1
0	871	708	1
0	879	712	1
0	884	716	1
0	887	720	1
0	891	724	1
0	896	728	1
0	901	732	1
0	908	736	1
0	911	740	1
0	915	744	1
0	920	748	1
0	925	752	1
0	930	756	1
0	933	760	1
0	937	764	1
0	942	768	1
0	947	772	1
0	953	776	1
0	956	780	1
0	961	784	1
0	968	788	1
0	973	792	1
0	978	796	1
0	981	800	1
0	986	804	1
0	992	808	1
0	998	812	1
0	1006	816	1
0	1009	820	1
0	1013	824	1
0	1018	828	1
0	1023	832	1
0	1028	836	1
0	1031	840	1
0	1035	844	1
0	1040	848	1
0	1046	852	1
0	1053	856	1
0	1056	860	1
0	1061	864	1
0	1066	868	1
0	1071	872	1
0	1077	876	1
0	1080	880	1
0	1085	884	1
0	1091	888	1
0	1097	892	1
0	1103	896	1
0	1106	900	1
0	1112	904	1
0	1119	908	1
0	1125	912	1
0	1131	916	1
0	1134	920	1
0	1140	924	1
0	1147	928	1
0	1154	932	1
0	1161	936	1
0	1164	940	1
0	1171	944	1
0	1176	948	1
0	1181	952	1
0	1186	956	1
0	1189	960	1
0	1194	964	1
0	1201	968	1
0	1208	972	1
0	1215	976	1
0	1218	980	1
0	1224	984	1
0	1231	988	1
0	1237	992	1
0	1243	996	1
0	1246	1000	1
0	1252	1004	1
0	1259	1008	1
0	1266	1012	1
0	1272	1016	1
0	1275	1020	1
0	1280	1024	1
0	1286	1028	1
0	1292	1032	1
0	1299	1036	1
0	1302	1040	1
0	1307	1044	1
0	1312	1048	1
0	1319	1052	1
0	1324	1056	1
0	1327	1060	1
0	1331	1064	1
0	1336	1068	1
0	1341	1072	1
0	1347	1076	1
0	1350	1080	1
0	1355	1084	1
0	1361	1088	1
0	1368	1092	1
0	1374	1096	1
0	1377	1100	1
0	1382	1104	1
0	1389	1108	1
0	1395	1112	1
0	1401	1116	1
0	1404	1120	1
0	1409	1124	1
0	1415	1128	1
0	1423	1132	1
0	1428	1136	1
0	1431	1140	1
0	1435	1144	1
0	1441	1148	1
0	1447	1152	1
0	1452	1156	1
0	1455	1160	1
0	1461	1164	1
0	1466	1168	1
0	1471	1172	1
0	1476	1176	1
0	1479	1180	1
0	1483	1184	1
0	1489	1188	1
0	1496	1192	1
0	1503	1196	1
0	1506	1200	1
0	1512	1204	1
0	1519	1208	1
0	1527	1212	1
0	1532	1216	1
0	1535	1220	1
0	1539	1224	1
0	1544	1228	1
0	1549	1232	1
0	1554	1236	1
0	1557	1240	1
0	1562	1244	1
0	1568	1248	1
0	1574	1252	1
0	1581	1256	1
0	1584	1260	1
0	1590	1264	1
0	1597	1268	1
0	1604	1272	1
0	1611	1276	1
0	1614	1280	1
0	1621	1284	1
0	1626	1288	1
0	1631	1292	1
0	1636	1296	1
0	1639	1300	1
0	1643	1304	1
0	1648	1308	1
0	1653	1312	1
0	1659	1316	1
0	1662	1320	1
0	1668	1324	1
0	1674	1328	1
0	1680	1332	1
0	1686	1336	1
0	1689	1340	1
0	1695	1344	1
0	1700	1348	1
0	1705	1352	1
0	1710	1356	1
0	1713	1360	1
0	1717	1364	1
0	1722	1368	1
0	1727	1372	1
0	1732	1376	1
0	1735	1380	1
0	1739	1384	1
0	1745	1388	1
0	1753	1392	1
0	1758	1396	1
0	1761	1400	1
0	1765	1404	1
0	1770	1408	1
0	1775	1412	1
0	1780	1416	1
0	1783	1420	1
0	1787	1424	1
0	1792	1428	1
0	1797	1432	1
0	1803	1436	1
0	1806	1440	1
0	1811	1444	1
0	1816	1448	1
0	1821	1452	1
0	1826	1456	1
0	1829	1460	1
0	1833	1464	1
0	1839	1468	1
0	1845	1472	1
0	1850	1476	1
0	1853	1480	1
0	1858	1484	1
0	1865	1488	1
0	1873	1492	1
0	1878	1496	1
0	1881	1500	1
0	1885	1504	1
0	1890	1508	1
0	1895	1512	1
0	1900	1516	1
0	1903	1520	1
0	1907	1524	1
0	1912	1528	1
0	1918	1532	1
0	1925	1536	1
0	1928	1540	1
0	1933	1544	1
0	1938	1548	1
0	1944	1552	1
0	1950	1556	1
0	1953	1560	1
0	1957	1564	1
0	1962	1568	1
0	1967	1572	1
0	1972	1576	1
0	1975	1580	1
0	1980	1584	1
0	1986	1588	1
0	1991	1592	1
0	1996	1596	1
0	1999	1600	1
0	2003	1604	1
0	2009	1608	1
0	2015	1612	1
0	2020	1616	1
0	2023	1620	1
0	2028	1624	1
0	2034	1628	1
0	2039	1632	1
0	2044	1636	1
0	2047	1640	1
0	2052	1644	1
0	2060	1648	1
0	2065	1652	1
0	2070	1656	1
0	2073	1660	1
0	2077	1664	1
0	2082	1668	1
0	2087	1672	1
0	2093	1676	1
0	2096	1680	1
0	2102	1684	1
0	2109	1688	1
0	2115	1692	1
0	2120	1696	1
0	2123	1700	1
0	2127	1704	1
0	2132	1708	1
0	2138	1712	1
0	2145	1716	1
0	2148	1720	1
0	2153	1724	1
0	2158	1728	1
0	2163	1732	1
0	2168	1736	1
0	2171	1740	1
0	2176	1744	1
0	2182	1748	1
0	2187	1752	1
0	2192	1756	1
0	2195	1760	1
0	2200	1764	1
0	2207	1768	1
0	2213	1772	1
0	2219	1776	1
0	2222	1780	1
0	2227	1784	1
0	2232	1788	1
0	2237	1792	1
0	2242	1796	1
0	2245	1800	1
0	2250	1804	1
0	2256	1808	1
0	2262	1812	1
0	2268	1816	1
0	2271	1820	1
0	2276	1824	1
0	2283	1828	1
0	2291	1832	1
0	2296	1836	1
0	2299	1840	1
0	2303	1844	1
0	2308	1848	1
0	2313	1852	1
0	2318	1856	1
0	2321	1860	1
0	2325	1864	1
0	2331	1868	1
0	2338	1872	1
0	2345	1876	1
0	2348	1880	1
0	2355	1884	1
0	2360	1888	1
0	2365	1892	1
0	2370	1896	1
0	2373	1900	1
0	2378	1904	1
0	2384	1908	1
0	2389	1912	1
0	2395	1916	1
0	2398	1920	1
0	2405	1924	1
0	2410	1928	1
0	2415	1932	1
0	2420	1936	1
0	2423	1940	1
0	2428	1944	1
0	2434	1948	1
0	2440	1952	1
0	2446	1956	1
0	2449	1960	1
0	2454	1964	1
0	2461	1968	1
0	2468	1972	1
0	2475	1976	1
0	2478	1980	1
0	2483	1984	1
0	2489	1988	1
0	2496	1992	1
0	2502	1996	1
0	2505	2000	1
0	2509	2004	1
0	2515	2008	1
0	2521	2012	1
0	2527	2016	1
0	2530	2020	1
0	2536	2024	1
0	2542	2028	1
0	2547	2032	1
0	2553	2036	1
0	2556	2040	1
0	2562	2044	1
0	2570	2048	1
0	2575	2052	1
0	2580	2056	1
0	2583	2060	1
0	2587	2064	1
0	2592	2068	1
0	2598	2072	1
0	2605	2076	1
0	2608	2080	1
0	2613	2084	1
0	2619	2088	1
0	2627	2092	1
0	2632	2096	1
0	2635	2100	1
0	2639	2104	1
0	2644	2108	1
0	2649	2112	1
0	2656	2116	1
0	2659	2120	1
0	2663	2124	1
0	2668	2128	1
0	2673	2132	1
0	2678	2136	1
0	2681	2140	1
0	2685	2144	1
0	2690	2148	1
0	2695	2152	1
0	2700	2156	1
0	2703	2160	1
0	2707	2164	1
0	2712	2168	1
0	2717	2172	1
0	2722	2176	1
0	2725	2180	1
0	2730	2184	1
0	2736	2188	1
0	2742	2192	1
0	2748	2196	1
0	2751	2200	1
0	2756	2204	1
0	2764	2208	1
0	2769	2212	1
0	2774	2216	1
0	2777	2220	1
0	2781	2224	1
0	2786	2228	1
0	2792	2232	1
0	2798	2236	1
0	2801	2240	1
0	2806	2244	1
0	2812	2248	1
0	2818	2252	1
0	2824	2256	1
0	2827	2260	1
0	2831	2264	1
0	2837	2268	1
0	2843	2272	1
0	2848	2276	1
0	2851	2280	1
0	2855	2284	1
0	2860	2288	1
0	2866	2292	1
0	2872	2296	1
0	2875	2300	1
0	2880	2304	1
0	2886	2308	1
0	2891	2312	1
0	2897	2316	1
0	2900	2320	1
0	2905	2324	1
0	2911	2328	1
0	2918	2332	1
0	2925	2336	1
0	2928	2340	1
0	2934	2344	1
0	2941	2348	1
0	2948	2352	1
0	2955	2356	1
0	2958	2360	1
0	2963	2364	1
0	2968	2368	1
0	2973	2372	1
0	2978	2376	1
0	2981	2380	1
0	2986	2384	1
0	2993	2388	1
0	3000	2392	1
0	3007	2396	1
0	3010	2400	1
0	3016	2404	1
0	3022	2408	1
0	3028	2412	1
0	3034	2416	1
0	3037	2420	1
0	3042	2424	1
0	3049	2428	1
0	3056	2432	1
0	3063	2436	1
0	3066	2440	1
0	3071	2444	1
0	3078	2448	1
0	3083	2452	1
0	3088	2456	1
0	3091	2460	1
0	3095	2464	1
0	3100	2468	1
0	3106	2472	1
0	3113	2476	1
0	3116	2480	1
0	3121	2484	1
0	3127	2488	1
0	3134	2492	1
0	3140	2496	1
0	3143	2500	1
0	3149	2504	1
0	3154	2508	1
0	3159	2512	1
0	3165	2516	1
0	3168	2520	1
0	3174	2524	1
0	3181	2528	1
0	3188	2532	1
0	3195	2536	1
0	3198	2540	1
0	3205	2544	1
0	3210	2548	1
0	3215	2552	1
0	3221	2556	1
0	3224	2560	1
0	3229	2564	1
0	3235	2568	1
0	3241	2572	1
0	3246	2576	1
0	3249	2580	1
0	3253	2584	1
0	3258	2588	1
0	3264	2592	1
0	3272	2596	1
0	3275	2600	1
0	3279	2604	1
0	3284	2608	1
0	3290	2612	1
0	3297	2616	1
0	3300	2620	1
0	3305	2624	1
0	3311	2628	1
0	3317	2632	1
0	3323	2636	1
0	3326	2640	1
0	3332	2644	1
0	3339	2648	1
0	3345	2652	1
0	3351	2656	1
0	3354	2660	1
0	3359	2664	1
0	3366	2668	1
0	3371	2672	1
0	3376	2676	1
0	3379	2680	1
0	3383	2684	1
0	3389	2688	1
0	3396	2692	1
0	3403	2696	1
0	3406	2700	1
0	3413	2704	1
0	3418	2708	1
0	3423	2712	1
0	3428	2716	1
0	3431	2720	1
0	3436	2724	1
0	3443	2728	1
0	3449	2732	1
0	3454	2736	1
0	3457	2740	1
0	3461	2744	1
0	3467	2748	1
0	3474	2752	1
0	3480	2756	1
0	3483	2760	1
0	3487	2764	1
0	3492	2768	1
0	3497	2772	1
0	3503	2776	1
0	3506	2780	1
0	3512	2784	1
0	3519	2788	1
0	3526	2792	1
0	3532	2796	1
0	3535	2800	1
0	3539	2804	1
0	3545	2808	1
0	3552	2812	1
0	3559	2816	1
0	3562	2820	1
0	3568	2824	1
0	3574	2828	1
0	3579	2832	1
0	3585	2836	1
0	3588	2840	1
0	3594	2844	1
0	3601	2848	1
0	3608	2852	1
0	3616	2856	1
0	3619	2860	1
0	3623	2864	1
0	3628	2868	1
0	3633	2872	1
0	3639	2876	1
0	3642	2880	1
0	3648	2884	1
0	3654	2888	1
0	3660	2892	1
0	3667	2896	1
0	3670	2900	1
0	3676	2904	1
0	3683	2908	1
0	3689	2912	1
0	3695	2916	1
0	3698	2920	1
0	3703	2924	1
0	3708	2928	1
0	3715	2932	1
0	3720	2936	1
0	3723	2940	1
0	3727	2944	1
0	3732	2948	1
0	3737	2952	1
0	3742	2956	1
0	3745	2960	1
0	3751	2964	1
0	3756	2968	1
0	3761	2972	1
0	3766	2976	1
0	3769	2980	1
0	3773	2984	1
0	3778	2988	1
0	3783	2992	1
0	3788	2996	1
0	3791	3000	1
0	3795	3004	1
0	3801	3008	1
0	3809	3012	1
0	3814	3016	1
0	3817	3020	1
0	3821	3024	1
0	3826	3028	1
0	3831	3032	1
0	3836	3036	1
0	3839	3040	1
0	3843	3044	1
0	3849	3048	1
0	3855	3052	1
0	3860	3056	1
0	3863	3060	1
0	3867	3064	1
0	3873	3068	1
0	3879	3072	1
0	3884	3076	1
0	3887	3080	1
0	3892	3084	1
0	3899	3088	1
0	3905	3092	1
0	3912	3096	1
0	3915	3100	1
0	3919	3104	1
0	3924	3108	1
0	3929	3112	1
0	3934	3116	1
0	3937	3120	1
0	3941	3124	1
0	3946	3128	1
0	3951	3132	1
0	3957	3136	1
0	3960	3140	1
0	3965	3144	1
0	3970	3148	1
0	3975	3152	1
0	3980	3156	1
0	3983	3160	1
0	3987	3164	1
0	3993	3168	1
0	3999	3172	1
0	4004	3176	1
0	4007	3180	1
0	4011	3184	1
0	4016	3188	1
0	4022	3192	1
0	4030	3196	1
0	4033	3200	1
0	4037	3204	1
0	4042	3208	1
0	4047	3212	1
0	4052	3216	1
0	4055	3220	1
0	4059	3224	1
0	4064	3228	1
0	4070	3232	1
0	4076	3236	1
0	4079	3240	1
0	4083	3244	1
0	4088	3248	1
0	4094	3252	1
0	4100	3256	1
0	4103	3260	1
0	4107	3264	1
0	4113	3268	1
0	4119	3272	1
0	4124	3276	1
0	4127	3280	1
0	4132	3284	1
0	4138	3288	1
0	4144	3292	1
0	4150	3296	1
0	4153	3300	1
0	4159	3304	1
0	4164	3308	1
0	4169	3312	1
0	4174	3316	1
0	4177	3320	1
0	4181	3324	1
0	4186	3328	1
0	4191	3332	1
0	4196	3336	1
0	4199	3340	1
0	4203	3344	1
0	4209	3348	1
0	4216	3352	1
0	4222	3356	1
0	4225	3360	1
0	4231	3364	1
0	4236	3368	1
0	4241	3372	1
0	4246	3376	1
0	4249	3380	1
0	4253	3384	1
0	4258	3388	1
0	4264	3392	1
0	4271	3396	1
0	4274	3400	1
0	4279	3404	1
0	4286	3408	1
0	4291	3412	1
0	4296	3416	1
0	4299	3420	1
0	4303	3424	1
0	4308	3428	1
0	4314	3432	1
0	4320	3436	1
0	4323	3440	1
0	4327	3444	1
0	4333	3448	1
0	4340	3452	1
0	4347	3456	1
0	4350	3460	1
0	4355	3464	1
0	4360	3468	1
0	4365	3472	1
0	4370	3476	1
0	4373	3480	1
0	4378	3484	1
0	4384	3488	1
0	4389	3492	1
0	4396	3496	1
0	4399	3500	1
0	4403	3504	1
0	4408	3508	1
0	4414	3512	1
0	4420	3516	1
0	4423	3520	1
0	4427	3524	1
0	4434	3528	1
0	4439	3532	1
0	4444	3536	1
0	4447	3540	1
0	4451	3544	1
0	4456	3548	1
0	4461	3552	1
0	4467	3556	1
0	4470	3560	1
0	4475	3564	1
0	4481	3568	1
0	4488	3572	1
0	4496	3576	1
0	4499	3580	1
0	4503	3584	1
0	4508	3588	1
0	4513	3592	1
0	4519	3596	1
0	4522	3600	1
1	2	4	1
1	9	8	1
1	14	12	1
1	19	16	1
1	22	20	1
1	26	24	1
1	32	28	1
1	39	32	1
1	45	36	1
1	48	40	1
1	53	44	1
1	59	48	1
1	64	52	1
1	69	56	1
1	72	60	1
1	77	64	1
1	83	68	1
1	88	72	1
1	95	76	1
1	98	80	1
1	102	84	1
1	107	88	1
1	112	92	1
1	117	96	1
1	120	100	1
1	124	104	1
1	130	108	1
1	138	112	1
1	143	116	1
1	146	120	1
1	150	124	1
1	155	128	1
1	161	132	1
1	167	136	1
1	170	140	1
1	175	144	1
1	182	148	1
1	189	152	1
1	197	156	1
1	200	160	1
1	204	164	1
1	209	168	1
1	214	172	1
1	219	176	1
1	222	180	1
1	226	184	1
1	233	188	1
1	238	192	1
1	243	196	1
1	246	200	1
1	250	204	1
1	255	208	1
1	260	212	1
1	265	216	1
1	268	220	1
1	273	224	1
1	279	228	1
1	284	232	1
1	289	236	1
1	292	240	1
1	296	244	1
1	302	248	1
1	308	252	1
1	315	256	1
1	318	260	1
1	322	264	1
1	327	268	1
1	332	272	1
1	337	276	1
1	340	280	1
1	345	284	1
1	352	288	1
1	358	292	1
1	364	296	1
1	367	300	1
1	373	304	1
1	379	308	1
1	384	312	1
1	389	316	1
1	392	320	1
1	396	324	1
1	401	328	1
1	406	332	1
1	413	336	1
1	416	340	1
1	420	344	1
1	425	348	1
1	430	352	1
1	436	356	1
1	439	360	1
1	445	364	1
1	451	368	1
1	456	372	1
1	461	376	1
1	464	380	1
1	469	384	1
1	475	388	1
1	482	392	1
1	487	396	1
1	490	400	1
1	494	404	1
1	499	408	1
1	504	412	1
1	509	416	1
1	512	420	1
1	516	424	1
1	522	428	1
1	529	432	1
1	536	436	1
1	539	440	1
1	545	444	1
1	551	448	1
1	556	452	1
1	561	456	1
1	564	460	1
1	568	464	1
1	573	468	1
1	578	472	1
1	583	476	1
1	586	480	1
1	590	484	1
1	595	488	1
1	600	492	1
1	605	496	1
1	608	500	1
1	612	504	1
1	617	508	1
1	622	512	1
1	627	516	1
1	630	520	1
1	635	524	1
1	641	528	1
1	646	532	1
1	651	536	1
1	654	540	1
1	659	544	1
1	665	548	1
1	671	552	1
1	677	556	1
1	680	560	1
1	685	564	1
1	691	568	1
1	696	572	1
1	702	576	1
1	705	580	1
1	710	584	1
1	715	588	1
1	720	592	1
1	725	596	1
1	728	600	1
1	733	604	1
1	740	608	1
1	747	612	1
1	753	616	1
1	756	620	1
1	761	624	1
1	767	628	1
1	772	632	1
1	779	636	1
1	782	640	1
1	786	644	1
1	791	648	1
1	797	652	1
1	804	656	1
1	807	660	1
1	813	664	1
1	820	668	1
1	827	672	1
1	833	676	1
1	836	680	1
1	842	684	1
1	847	688	1
1	852	692	1
1	857	696	1
1	860	700	1
1	865	704	1
1	872	708	1
1	880	712	1
1	885	716	1
1	888	720	1
1	892	724	1
1	897	728	1
1	902	732	1
1	909	736	1
1	912	740	1
1	916	744	1
1	921	748	1
1	926	752	1
1	931	756	1
1	934	760	1
1	938	764	1
1	943	768	1
1	948	772	1
1	954	776	1
1	957	780	1
1	962	784	1
1	969	788	1
1	974	792	1
1	979	796	1
1	982	800	1
1	987	804	1
1	993	808	1
1	999	812	1
1	1007	816	1
1	1010	820	1
1	1014	824	1
1	1019	828	1
1	1024	832	1
1	1029	836	1
1	1032	840	1
1	1036	844	1
1	1041	848	1
1	1047	852	1
1	1054	856	1
1	1057	860	1
1	1062	864	1
1	1067	868	1
1	1072	872	1
1	1078	876	1
1	1081	880	1
1	1086	884	1
1	1092	888	1
1	1098	892	1
1	1104	896	1
1	1107	900	1
1	1113	904	1
1	1120	908	1
1	1126	912	1
1	1132	916	1
1	1135	920	1
1	1141	924	1
1	1148	928	1
1	1155	932	1
1	1162	936	1
1	1165	940	1
1	1172	944	1
1	1177	948	1
1	1182	952	1
1	1187	956	1
1	1190	960	1
1	1195	964	1
1	1202	968	1
1	1209	972	1
1	1216	976	1
1	1219	980	1
1	1225	984	1
1	1232	988	1
1	1238	992	1
1	1244	996	1
1	1247	1000	1
1	1253	1004	1
1	1260	1008	1
1	1267	1012	1
1	1273	1016	1
1	1276	1020	1
1	1281	1024	1
1	1287	1028	1
1	1293	1032	1
1	1300	1036	1
1	1303	1040	1
1	1308	1044	1
1	1313	1048	1
1	1320	1052	1
1	1325	1056	1
1	1328	1060	1
1	1332	1064	1
1	1337	1068	1
1	1342	1072	1
1	1348	1076	1
1	1351	1080	1
1	1356	1084	1
1	1362	1088	1
1	1369	1092	1
1	1375	1096	1
1	1378	1100	1
1	1383	1104	1
1	1390	1108	1
1	1396	1112	1
1	1402	1116	1
1	1405	1120	1
1	1410	1124	1
1	1416	1128	1
1	1424	1132	1
1	1429	1136	1
1	1432	1140	1
1	1436	1144	1
1	1442	1148	1
1	1448	1152	1
1	1453	1156	1
1	1456	1160	1
1	1462	1164	1
1	1467	1168	1
1	1472	1172	1
1	1477	1176	1
1	1480	1180	1
1	1484	1184	1
1	1490	1188	1
1	1497	1192	1
1	1504	1196	1
1	1507	1200	1
1	1513	1204	1
1	1520	1208	1
1	1528	1212	1
1	1533	1216	1
1	1536	1220	1
1	1540	1224	1
1	1545	1228	1
1	1550	1232	1
1	1555	1236	1
1	1558	1240	1
1	1563	1244	1
1	1569	1248	1
1	1575	1252	1
1	1582	1256	1
1	1585	1260	1
1	1591	1264	1
1	1598	1268	1
1	1605	1272	1
1	1612	1276	1
1	1615	1280	1
1	1622	1284	1
1	1627	1288	1
1	1632	1292	1
1	1637	1296	1
1	1640	1300	1
1	1644	1304	1
1	1649	1308	1
1	1654	1312	1
1	1660	1316	1
1	1663	1320	1
1	1669	1324	1
1	1675	1328	1
1	1681	1332	1
1	1687	1336	1
1	1690	1340	1
1	1696	1344	1
1	1701	1348	1
1	1706	1352	1
1	1711	1356	1
1	1714	1360	1
1	1718	1364	1
1	1723	1368	1
1	1728	1372	1
1	1733	1376	1
1	1736	1380	1
1	1740	1384	1
1	1746	1388	1
1	1754	1392	1
1	1759	1396	1
1	1762	1400	1
1	1766	1404	1
1	1771	1408	1
1	1776	1412	1
1	1781	1416	1
1	1784	1420	1
1	1788	1424	1
1	1793	1428	1
1	1798	1432	1
1	1804	1436	1
1	1807	1440	1
1	1812	1444	1
1	1817	1448	1
1	1822	1452	1
1	1827	1456	1
1	1830	1460	1
1	1834	1464	1
1	1840	1468	1
1	1846	1472	1
1	1851	1476	1
1	1854	1480	1
1	1859	1484	1
1	1866	1488	1
1	1874	1492	1
1	1879	1496	1
1	1882	1500	1
1	1886	1504	1
1	1891	1508	1
1	1896	1512	1
1	1901	1516	1
1	1904	1520	1
1	1908	1524	1
1	1913	1528	1
1	1919	1532	1
1	1926	1536	1
1	1929	1540	1
1	1934	1544	1
1	1939	1548	1
1	1945	1552	1
1	1951	1556	1
1	1954	1560	1
1	1958	1564	1
1	1963	1568	1
1	1968	1572	1
1	1973	1576	1
1	1976	1580	1
1	1981	1584	1
1	1987	1588	1
1	1992	1592	1
1	1997	1596	1
1	2000	1600	1
1	2004	1604	1
1	2010	1608	1
1	2016	1612	1
1	2021	1616	1
1	2024	1620	1
1	2029	1624	1
1	2035	1628	1
1	2040	1632	1
1	2045	1636	1
1	2048	1640	1
1	2053	1644	1
1	2061	1648	1
1	2066	1652	1
1	2071	1656	1
1	2074	1660	1
1	2078	1664	1
1	2083	1668	1
1	2088	1672	1
1	2094	1676	1
1	2097	1680	1
1	2103	1684	1
1	2110	1688	1
1	2116	1692	1
1	2121	1696	1
1	2124	1700	1
1	2128	1704	1
1	2133	1708	1
1	2139	1712	1
1	2146	1716	1
1	2149	1720	1
1	2154	1724	1
1	2159	1728	1
1	2164	1732	1
1	2169	1736	1
1	2172	1740	1
1	2177	1744	1
1	2183	1748	1
1	2188	1752	1
1	2193	1756	1
1	2196	1760	1
1	2201	1764	1
1	2208	1768	1
1	2214	1772	1
1	2220	1776	1
1	2223	1780	1
1	2228	1784	1
1	2233	1788	1
1	2238	1792	1
1	2243	1796	1
1	2246	1800	1
1	2251	1804	1
1	2257	1808	1
1	2263	1812	1
1	2269	1816	1
1	2272	1820	1
1	2277	1824	1
1	2284	1828	1
1	2292	1832	1
1	2297	1836	1
1	2300	1840	1
1	2304	1844	1
1	2309	1848	1
1	2314	1852	1
1	2319	1856	1
1	2322	1860	1
1	2326	1864	1
1	2332	1868	1
1	2339	1872	1
1	2346	1876	1
1	2349	1880	1
1	2356	1884	1
1	2361	1888	1
1	2366	1892	1
1	2371	1896	1
1	2374	1900	1
1	2379	1904	1
1	2385	1908	1
1	2390	1912	1
1	2396	1916	1
1	2399	1920	1
1	2406	1924	1
1	2411	1928	1
1	2416	1932	1
1	2421	1936	1
1	2424	1940	1
1	2429	1944	1
1	2435	1948	1
1	2441	1952	1
1	2447	1956	1
1	2450	1960	1
1	2455	1964	1
1	2462	1968	1
1	2469	1972	1
1	2476	1976	1
1	2479	1980	1
1	2484	1984	1
1	2490	1988	1
1	2497	1992	1
1	2503	1996	1
1	2506	2000	1
1	2510	2004	1
1	2516	2008	1
1	2522	2012	1
1	2528	2016	1
1	2531	2020	1
1	2537	2024	1
1	2543	2028	1
1	2548	2032	1
1	2554	2036	1
1	2557	2040	1
1	2563	2044	1
1	2571	2048	1
1	2576	2052	1
1	2581	2056	1
1	2584	2060	1
1	2588	2064	1
1	2593	2068	1
1	2599	2072	1
1	2606	2076	1
1	2609	2080	1
1	2614	2084	1
1	2620	2088	1
1	2628	2092	1
1	2633	2096	1
1	2636	2100	1
1	2640	2104	1
1	2645	2108	1
1	2650	2112	1
1	2657	2116	1
1	2660	2120	1
1	2664	2124	1
1	2669	2128	1
1	2674	2132	1
1	2679	2136	1
1	2682	2140	1
1	2686	2144	1
1	2691	2148	1
1	2696	2152	1
1	2701	2156	1
1	2704	2160	1
1	2708	2164	1
1	2713	2168	1
1	2718	2172	1
1	2723	2176	1
1	2726	2180	1
1	2731	2184	1
1	2737	2188	1
1	2743	2192	1
1	2749	2196	1
1	2752	2200	1
1	2757	2204	1
1	2765	2208	1
1	2770	2212	1
1	2775	2216	1
1	2778	2220	1
1	2782	2224	1
1	2787	2228	1
1	2793	2232	1
1	2799	2236	1
1	2802	2240	1
1	2807	2244	1
1	2813	2248	1
1	2819	2252	1
1	2825	2256	1
1	2828	2260	1
1	2832	2264	1
1	2838	2268	1
1	2844	2272	1
1	2849	2276	1
1	2852	2280	1
1	2856	2284	1
1	2861	2288	1
1	2867	2292	1
1	2873	2296	1
1	2876	2300	1
1	2881	2304	1
1	2887	2308	1
1	2892	2312	1
1	2898	2316	1
1	2901	2320	1
1	2906	2324	1
1	2912	2328	1
1	2919	2332	1
1	2926	2336	1
1	2929	2340	1
1	2935	2344	1
1	2942	2348	1
1	2949	2352	1
1	2956	2356	1
1	2959	2360	1
1	2964	2364	1
1	2969	2368	1
1	2974	2372	1
1	2979	2376	1
1	2982	2380	1
1	2987	2384	1
1	2994	2388	1
1	3001	2392	1
1	3008	2396	1
1	3011	2400	1
1	3017	2404	1
1	3023	2408	1
1	3029	2412	1
1	3035	2416	1
1	3038	2420	1
1	3043	2424	1
1	3050	2428	1
1	3057	2432	1
1	3064	2436	1
1	3067	2440	1
1	3072	2444	1
1	3079	2448	1
1	3084	2452	1
1	3089	2456	1
1	3092	2460	1
1	3096	2464	1
1	3101	2468	1
1	3107	2472	1
1	3114	2476	1
1	3117	2480	1
1	3122	2484	1
1	3128	2488	1
1	3135	2492	1
1	3141	2496	1
1	3144	2500	1
1	3150	2504	1
1	3155	2508	1
1	3160	2512	1
1	3166	2516	1
1	3169	2520	1
1	3175	2524	1
1	3182	2528	1
1	3189	2532	1
1	3196	2536	1
1	3199	2540	1
1	3206	2544	1
1	3211	2548	1
1	3216	2552	1
1	3222	2556	1
1	3225	2560	1
1	3230	2564	1
1	3236	2568	1
1	3242	2572	1
1	3247	2576	1
1	3250	2580	1
1	3254	2584	1
1	3259	2588	1
1	3265	2592	1
1	3273	2596	1
1	3276	2600	1
1	3280	2604	1
1	3285	2608	1
1	3291	2612	1
1	3298	2616	1
1	3301	2620	1
1	3306	2624	1
1	3312	2628	1
1	3318	2632	1
1	3324	2636	1
1	3327	2640	1
1	3333	2644	1
1	3340	2648	1
1	3346	2652	1
1	3352	2656	1
1	3355	2660	1
1	3360	2664	1
1	3367	2668	1
1	3372	2672	1
1	3377	2676	1
1	3380	2680	1
1	3384	2684	1
1	3390	2688	1
1	3397	2692	1
1	3404	2696	1
1	3407	2700	1
1	3414	2704	1
1	3419	2708	1
1	3424	2712	1
1	3429	2716	1
1	3432	2720	1
1	3437	2724	1
1	3444	2728	1
1	3450	2732	1
1	3455	2736	1
1	3458	2740	1
1	3462	2744	1
1	3468	2748	1
1	3475	2752	1
1	3481	2756	1
1	3484	2760	1
1	3488	2764	1
1	3493	2768	1
1	3498	2772	1
1	3504	2776	1
1	3507	2780	1
1	3513	2784	1
1	3520	2788	1
1	3527	2792	1
1	3533	2796	1
1	3536	2800	1
1	3540	2804	1
1	3546	2808	1
1	3553	2812	1
1	3560	2816	1
1	3563	2820	1
1	3569	2824	1
1	3575	2828	1
1	3580	2832	1
1	3586	2836	1
1	3589	2840	1
1	3595	2844	1
1	3602	2848	1
1	3609	2852	1
1	3617	2856	1
1	3620	2860	1
1	3624	2864	1
1	3629	2868	1
1	3634	2872	1
1	3640	2876	1
1	3643	2880	1
1	3649	2884	1
1	3655	2888	1
1	3661	2892	1
1	3668	2896	1
1	3671	2900	1
1	3677	2904	1
1	3684	2908	1
1	3690	2912	1
1	3696	2916	1
1	3699	2920	1
1	3704	2924	1
1	3709	2928	1
1	3716	2932	1
1	3721	2936	1
1	3724	2940	1
1	3728	2944	1
1	3733	2948	1
1	3738	2952	1
1	3743	2956	1
1	3746	2960	1
1	3752	2964	1
1	3757	2968	1
1	3762	2972	1
1	3767	2976	1
1	3770	2980	1
1	3774	2984	1
1	3779	2988	1
1	3784	2992	1
1	3789	2996	1
1	3792	3000	1
1	3796	3004	1
1	3802	3008	1
1	3810	3012	1
1	3815	3016	1
1	3818	3020	1
1	3822	3024	1
1	3827	3028	1
1	3832	3032	1
1	3837	3036	1
1	3840	3040	1
1	3844	3044	1
1	3850	3048	1
1	3856	3052	1
1	3861	3056	1
1	3864	3060	1
1	3868	3064	1
1	3874	3068	1
1	3880	3072	1
1	3885	3076	1
1	3888	3080	1
1	3893	3084	1
1	3900	3088	1
1	3906	3092	1
1	3913	3096	1
1	3916	3100	1
1	3920	3104	1
1	3925	3108	1
1	3930	3112	1
1	3935	3116	1
1	3938	3120	1
1	3942	3124	1
1	3947	3128	1
1	3952	3132	1
1	3958	3136	1
1	3961	3140	1
1	3966	3144	1
1	3971	3148	1
1	3976	3152	1
1	3981	3156	1
1	3984	3160	1
1	3988	3164	1
1	3994	3168	1
1	4000	3172	1
1	4005	3176	1
1	4008	3180	1
1	4012	3184	1
1	4017	3188	1
1	4023	3192	1
1	4031	3196	1
1	4034	3200	1
1	4038	3204	1
1	4043	3208	1
1	4048	3212	1
1	4053	3216	1
1	4056	3220	1
1	4060	3224	1
1	4065	3228	1
1	4071	3232	1
1	4077	3236	1
1	4080	3240	1
1	4084	3244	1
1	4089	3248	1
1	4095	3252	1
1	4101	3256	1
1	4104	3260	1
1	4108	3264	1
1	4114	3268	1
1	4120	3272	1
1	4125	3276	1
1	4128	3280	1
1	4133	3284	1
1	4139	3288	1
1	4145	3292	1
1	4151	3296	1
1	4154	3300	1
1	4160	3304	1
1	4165	3308	1
1	4170	3312	1
1	4175	3316	1
1	4178	3320	1
1	4182	3324	1
1	4187	3328	1
1	4192	3332	1
1	4197	3336	1
1	4200	3340	1
1	4204	3344	1
1	4210	3348	1
1	4217	3352	1
1	4223	3356	1
1	4226	3360	1
1	4232	3364	1
1	4237	3368	1
1	4242	3372	1
1	4247	3376	1
1	4250	3380	1
1	4254	3384	1
1	4259	3388	1
1	4265	3392	1
1	4272	3396	1
1	4275	3400	1
1	4280	3404	1
1	4287	3408	1
1	4292	3412	1
1	4297	3416	1
1	4300	3420	1
1	4304	3424	1
1	4309	3428	1
1	4315	3432	1
1	4321	3436	1
1	4324	3440	1
1	4328	3444	1
1	4334	3448	1
1	4341	3452	1
1	4348	3456	1
1	4351	3460	1
1	4356	3464	1
1	4361	3468	1
1	4366	3472	1
1	4371	3476	1
1	4374	3480	1
1	4379	3484	1
1	4385	3488	1
1	4390	3492	1
1	4397	3496	1
1	4400	3500	1
1	4404	3504	1
1	4409	3508	1
1	4415	3512	1
1	4421	3516	1
1	4424	3520	1
1	4428	3524	1
1	4435	3528	1
1	4440	3532	1
1	4445	3536	1
1	4448	3540	1
1	4452	3544	1
1	4457	3548	1
1	4462	3552	1
1	4468	3556	1
1	4471	3560	1
1	4476	3564	1
1	4482	3568	1
1	4489	3572	1
1	4497	3576	1
1	4500	3580	1
1	4504	3584	1
1	4509	3588	1
1	4514	3592	1
1	4520	3596	1
1	4523	3600	1
2	3	5	0
2	10	10	0
2	15	15	0
2	20	20	0
2	27	25	0
2	33	30	1
2	40	35	1
2	46	40	0
2	54	45	1
2	60	50	0
2	65	55	0
2	70	60	0
2	78	65	1
2	84	70	0
2	89	75	0
2	96	80	0
2	103	85	0
2	108	90	0
2	113	95	0
2	118	100	0
2	125	105	0
2	131	110	1
2	139	115	0
2	144	120	0
2	151	125	0
2	156	130	0
2	162	135	1
2	168	140	0
2	176	145	1
2	183	150	1
2	190	155	1
2	198	160	0
2	205	165	0
2	210	170	0
2	215	175	0
2	220	180	0
2	227	185	0
2	234	190	0
2	239	195	0
2	244	200	0
2	251	205	0
2	256	210	0
2	261	215	0
2	266	220	0
2	274	225	1
2	280	230	0
2	285	235	0
2	290	240	0
2	297	245	0
2	303	250	1
2	309	255	0
2	316	260	0
2	323	265	0
2	328	270	0
2	333	275	0
2	338	280	0
2	346	285	1
2	353	290	1
2	359	295	0
2	365	300	1
2	374	305	1
2	380	310	0
2	385	315	0
2	390	320	0
2	397	325	0
2	402	330	0
2	407	335	0
2	414	340	0
2	421	345	0
2	426	350	0
2	431	355	0
2	437	360	1
2	446	365	1
2	452	370	0
2	457	375	0
2	462	380	0
2	470	385	1
2	476	390	0
2	483	395	0
2	488	400	0
2	495	405	0
2	500	410	0
2	505	415	0
2	510	420	0
2	517	425	0
2	523	430	1
2	530	435	1
2	537	440	1
2	546	445	1
2	552	450	0
2	557	455	0
2	562	460	0
2	569	465	0
2	574	470	0
2	579	475	0
2	584	480	0
2	591	485	0
2	596	490	0
2	601	495	0
2	606	500	0
2	613	505	0
2	618	510	0
2	623	515	0
2	628	520	0
2	636	525	1
2	642	530	0
2	647	535	0
2	652	540	0
2	660	545	1
2	666	550	0
2	672	555	1
2	678	560	0
2	686	565	1
2	692	570	0
2	697	575	0
2	703	580	1
2	711	585	0
2	716	590	0
2	721	595	0
2	726	600	0
2	734	605	1
2	741	610	1
2	748	615	1
2	754	620	0
2	762	625	1
2	768	630	0
2	773	635	0
2	780	640	0
2	787	645	0
2	792	650	0
2	798	655	1
2	805	660	1
2	814	665	1
2	821	670	1
2	828	675	1
2	834	680	0
2	843	685	0
2	848	690	0
2	853	695	0
2	858	700	0
2	866	705	1
2	873	710	1
2	881	715	0
2	886	720	0
2	893	725	0
2	898	730	0
2	903	735	0
2	910	740	0
2	917	745	0
2	922	750	0
2	927	755	0
2	932	760	0
2	939	765	0
2	944	770	0
2	949	775	0
2	955	780	1
2	963	785	0
2	970	790	0
2	975	795	0
2	980	800	0
2	988	805	1
2	994	810	0
2	1000	815	1
2	1008	820	0
2	1015	825	0
2	1020	830	0
2	1025	835	0
2	1030	840	0
2	1037	845	0
2	1042	850	0
2	1048	855	1
2	1055	860	1
2	1063	865	0
2	1068	870	0
2	1073	875	0
2	1079	880	1
2	1087	885	0
2	1093	890	1
2	1099	895	0
2	1105	900	1
2	1114	905	1
2	1121	910	1
2	1127	915	0
2	1133	920	1
2	1142	925	1
2	1149	930	1
2	1156	935	1
2	1163	940	1
2	1173	945	0
2	1178	950	0
2	1183	955	0
2	1188	960	0
2	1196	965	1
2	1203	970	1
2	1210	975	1
2	1217	980	1
2	1226	985	1
2	1233	990	1
2	1239	995	0
2	1245	1000	1
2	1254	1005	1
2	1261	1010	1
2	1268	1015	1
2	1274	1020	0
2	1282	1025	1
2	1288	1030	0
2	1294	1035	1
2	1301	1040	1
2	1309	1045	0
2	1314	1050	0
2	1321	1055	0
2	1326	1060	0
2	1333	1065	0
2	1338	1070	0
2	1343	1075	0
2	1349	1080	1
2	1357	1085	0
2	1363	1090	1
2	1370	1095	1
2	1376	1100	0
2	1384	1105	1
2	1391	1110	1
2	1397	1115	0
2	1403	1120	1
2	1411	1125	0
2	1417	1130	1
2	1425	1135	0
2	1430	1140	0
2	1437	1145	0
2	1443	1150	1
2	1449	1155	0
2	1454	1160	0
2	1463	1165	0
2	1468	1170	0
2	1473	1175	0
2	1478	1180	0
2	1485	1185	0
2	1491	1190	1
2	1498	1195	1
2	1505	1200	1
2	1514	1205	1
2	1521	1210	1
2	1529	1215	0
2	1534	1220	0
2	1541	1225	0
2	1546	1230	0
2	1551	1235	0
2	1556	1240	0
2	1564	1245	1
2	1570	1250	0
2	1576	1255	1
2	1583	1260	1
2	1592	1265	1
2	1599	1270	1
2	1606	1275	1
2	1613	1280	1
2	1623	1285	0
2	1628	1290	0
2	1633	1295	0
2	1638	1300	0
2	1645	1305	0
2	1650	1310	0
2	1655	1315	0
2	1661	1320	1
2	1670	1325	1
2	1676	1330	0
2	1682	1335	1
2	1688	1340	0
2	1697	1345	0
2	1702	1350	0
2	1707	1355	0
2	1712	1360	0
2	1719	1365	0
2	1724	1370	0
2	1729	1375	0
2	1734	1380	0
2	1741	1385	0
2	1747	1390	1
2	1755	1395	0
2	1760	1400	0
2	1767	1405	0
2	1772	1410	0
2	1777	1415	0
2	1782	1420	0
2	1789	1425	0
2	1794	1430	0
2	1799	1435	0
2	1805	1440	1
2	1813	1445	0
2	1818	1450	0
2	1823	1455	0
2	1828	1460	0
2	1835	1465	0
2	1841	1470	1
2	1847	1475	0
2	1852	1480	0
2	1860	1485	1
2	1867	1490	1
2	1875	1495	0
2	1880	1500	0
2	1887	1505	0
2	1892	1510	0
2	1897	1515	0
2	1902	1520	0
2	1909	1525	0
2	1914	1530	0
2	1920	1535	1
2	1927	1540	1
2	1935	1545	0
2	1940	1550	0
2	1946	1555	1
2	1952	1560	0
2	1959	1565	0
2	1964	1570	0
2	1969	1575	0
2	1974	1580	0
2	1982	1585	1
2	1988	1590	0
2	1993	1595	0
2	1998	1600	0
2	2005	1605	0
2	2011	1610	1
2	2017	1615	0
2	2022	1620	0
2	2030	1625	1
2	2036	1630	0
2	2041	1635	0
2	2046	1640	0
2	2054	1645	1
2	2062	1650	0
2	2067	1655	0
2	2072	1660	0
2	2079	1665	0
2	2084	1670	0
2	2089	1675	0
2	2095	1680	1
2	2104	1685	1
2	2111	1690	1
2	2117	1695	0
2	2122	1700	0
2	2129	1705	0
2	2134	1710	0
2	2140	1715	1
2	2147	1720	1
2	2155	1725	0
2	2160	1730	0
2	2165	1735	0
2	2170	1740	0
2	2178	1745	1
2	2184	1750	0
2	2189	1755	0
2	2194	1760	0
2	2202	1765	1
2	2209	1770	1
2	2215	1775	0
2	2221	1780	1
2	2229	1785	0
2	2234	1790	0
2	2239	1795	0
2	2244	1800	0
2	2252	1805	1
2	2258	1810	0
2	2264	1815	1
2	2270	1820	0
2	2278	1825	1
2	2285	1830	1
2	2293	1835	0
2	2298	1840	0
2	2305	1845	0
2	2310	1850	0
2	2315	1855	0
2	2320	1860	0
2	2327	1865	0
2	2333	1870	1
2	2340	1875	1
2	2347	1880	1
2	2357	1885	0
2	2362	1890	0
2	2367	1895	0
2	2372	1900	0
2	2380	1905	1
2	2386	1910	0
2	2391	1915	0
2	2397	1920	1
2	2407	1925	0
2	2412	1930	0
2	2417	1935	0
2	2422	1940	0
2	2430	1945	1
2	2436	1950	0
2	2442	1955	1
2	2448	1960	0
2	2456	1965	1
2	2463	1970	1
2	2470	1975	1
2	2477	1980	1
2	2485	1985	0
2	2491	1990	1
2	2498	1995	1
2	2504	2000	0
2	2511	2005	0
2	2517	2010	1
2	2523	2015	0
2	2529	2020	1
2	2538	2025	1
2	2544	2030	0
2	2549	2035	0
2	2555	2040	1
2	2564	2045	1
2	2572	2050	0
2	2577	2055	0
2	2582	2060	0
2	2589	2065	0
2	2594	2070	0
2	2600	2075	1
2	2607	2080	1
2	2615	2085	0
2	2621	2090	1
2	2629	2095	0
2	2634	2100	0
2	2641	2105	0
2	2646	2110	0
2	2651	2115	0
2	2658	2120	0
2	2665	2125	0
2	2670	2130	0
2	2675	2135	0
2	2680	2140	0
2	2687	2145	0
2	2692	2150	0
2	2697	2155	0
2	2702	2160	0
2	2709	2165	0
2	2714	2170	0
2	2719	2175	0
2	2724	2180	0
2	2732	2185	1
2	2738	2190	0
2	2744	2195	1
2	2750	2200	0
2	2758	2205	1
2	2766	2210	0
2	2771	2215	0
2	2776	2220	0
2	2783	2225	0
2	2788	2230	0
2	2794	2235	1
2	2800	2240	0
2	2808	2245	1
2	2814	2250	0
2	2820	2255	1
2	2826	2260	0
2	2833	2265	0
2	2839	2270	1
2	2845	2275	0
2	2850	2280	0
2	2857	2285	0
2	2862	2290	0
2	2868	2295	1
2	2874	2300	0
2	2882	2305	1
2	2888	2310	0
2	2893	2315	0
2	2899	2320	1
2	2907	2325	0
2	2913	2330	1
2	2920	2335	1
2	2927	2340	1
2	2936	2345	1
2	2943	2350	1
2	2950	2355	1
2	2957	2360	1
2	2965	2365	0
2	2970	2370	0
2	2975	2375	0
2	2980	2380	0
2	2988	2385	1
2	2995	2390	1
2	3002	2395	1
2	3009	2400	1
2	3018	2405	1
2	3024	2410	0
2	3030	2415	1
2	3036	2420	0
2	3044	2425	1
2	3051	2430	1
2	3058	2435	1
2	3065	2440	1
2	3073	2445	0
2	3080	2450	0
2	3085	2455	0
2	3090	2460	0
2	3097	2465	0
2	3102	2470	0
2	3108	2475	1
2	3115	2480	1
2	3123	2485	0
2	3129	2490	1
2	3136	2495	1
2	3142	2500	0
2	3151	2505	0
2	3156	2510	0
2	3161	2515	0
2	3167	2520	1
2	3176	2525	1
2	3183	2530	1
2	3190	2535	1
2	3197	2540	1
2	3207	2545	0
2	3212	2550	0
2	3217	2555	0
2	3223	2560	1
2	3231	2565	0
2	3237	2570	1
2	3243	2575	0
2	3248	2580	0
2	3255	2585	0
2	3260	2590	0
2	3266	2595	1
2	3274	2600	0
2	3281	2605	0
2	3286	2610	0
2	3292	2615	1
2	3299	2620	1
2	3307	2625	0
2	3313	2630	1
2	3319	2635	0
2	3325	2640	1
2	3334	2645	1
2	3341	2650	1
2	3347	2655	0
2	3353	2660	1
2	3361	2665	0
2	3368	2670	0
2	3373	2675	0
2	3378	2680	0
2	3385	2685	0
2	3391	2690	1
2	3398	2695	1
2	3405	2700	1
2	3415	2705	0
2	3420	2710	0
2	3425	2715	0
2	3430	2720	0
2	3438	2725	1
2	3445	2730	1
2	3451	2735	0
2	3456	2740	0
2	3463	2745	0
2	3469	2750	1
2	3476	2755	1
2	3482	2760	0
2	3489	2765	0
2	3494	2770	0
2	3499	2775	0
2	3505	2780	1
2	3514	2785	1
2	3521	2790	1
2	3528	2795	1
2	3534	2800	0
2	3541	2805	0
2	3547	2810	1
2	3554	2815	1
2	3561	2820	1
2	3570	2825	1
2	3576	2830	0
2	3581	2835	0
2	3587	2840	1
2	3596	2845	1
2	3603	2850	1
2	3610	2855	1
2	3618	2860	0
2	3625	2865	0
2	3630	2870	0
2	3635	2875	0
2	3641	2880	1
2	3650	2885	1
2	3656	2890	0
2	3662	2895	1
2	3669	2900	1
2	3678	2905	1
2	3685	2910	1
2	3691	2915	0
2	3697	2920	1
2	3705	2925	0
2	3710	2930	0
2	3717	2935	0
2	3722	2940	0
2	3729	2945	0
2	3734	2950	0
2	3739	2955	0
2	3744	2960	0
2	3753	2965	0
2	3758	2970	0
2	3763	2975	0
2	3768	2980	0
2	3775	2985	0
2	3780	2990	0
2	3785	2995	0
2	3790	3000	0
2	3797	3005	0
2	3803	3010	1
2	3811	3015	0
2	3816	3020	0
2	3823	3025	0
2	3828	3030	0
2	3833	3035	0
2	3838	3040	0
2	3845	3045	0
2	3851	3050	1
2	3857	3055	0
2	3862	3060	0
2	3869	3065	0
2	3875	3070	1
2	3881	3075	0
2	3886	3080	0
2	3894	3085	1
2	3901	3090	1
2	3907	3095	0
2	3914	3100	0
2	3921	3105	0
2	3926	3110	0
2	3931	3115	0
2	3936	3120	0
2	3943	3125	0
2	3948	3130	0
2	3953	3135	0
2	3959	3140	1
2	3967	3145	0
2	3972	3150	0
2	3977	3155	0
2	3982	3160	0
2	3989	3165	0
2	3995	3170	1
2	4001	3175	0
2	4006	3180	0
2	4013	3185	0
2	4018	3190	0
2	4024	3195	1
2	4032	3200	0
2	4039	3205	0
2	4044	3210	0
2	4049	3215	0
2	4054	3220	0
2	4061	3225	0
2	4066	3230	0
2	4072	3235	1
2	4078	3240	0
2	4085	3245	0
2	4090	3250	0
2	4096	3255	1
2	4102	3260	0
2	4109	3265	0
2	4115	3270	1
2	4121	3275	0
2	4126	3280	0
2	4134	3285	1
2	4140	3290	0
2	4146	3295	1
2	4152	3300	0
2	4161	3305	0
2	4166	3310	0
2	4171	3315	0
2	4176	3320	0
2	4183	3325	0
2	4188	3330	0
2	4193	3335	0
2	4198	3340	0
2	4205	3345	0
2	4211	3350	1
2	4218	3355	1
2	4224	3360	0
2	4233	3365	0
2	4238	3370	0
2	4243	3375	0
2	4248	3380	0
2	4255	3385	0
2	4260	3390	0
2	4266	3395	1
2	4273	3400	1
2	4281	3405	0
2	4288	3410	0
2	4293	3415	0
2	4298	3420	0
2	4305	3425	0
2	4310	3430	0
2	4316	3435	1
2	4322	3440	0
2	4329	3445	0
2	4335	3450	1
2	4342	3455	1
2	4349	3460	1
2	4357	3465	0
2	4362	3470	0
2	4367	3475	0
2	4372	3480	0
2	4380	3485	1
2	4386	3490	0
2	4391	3495	0
2	4398	3500	0
2	4405	3505	0
2	4410	3510	0
2	4416	3515	1
2	4422	3520	0
2	4429	3525	0
2	4436	3530	0
2	4441	3535	0
2	4446	3540	0
2	4453	3545	0
2	4458	3550	0
2	4463	3555	0
2	4469	3560	1
2	4477	3565	0
2	4483	3570	1
2	4490	3575	1
2	4498	3580	0
2	4505	3585	0
2	4510	3590	0
2	4515	3595	0
2	4521	3600	1
3	25	24	1
3	31	28	1
3	44	36	1
3	47	40	1
3	52	44	1
3	58	48	1
3	63	52	1
3	68	56	1
3	71	60	1
3	76	64	1
3	87	72	1
3	94	76	1
3	97	80	1
3	101	84	1
3	106	88	1
3	111	92	1
3	116	96	1
3	119	100	1
3	123	104	1
3	129	108	1
3	142	116	1
3	145	120	1
3	149	124	1
3	154	128	1
3	160	132	1
3	166	136	1
3	169	140	1
3	174	144	1
3	181	148	1
3	199	160	1
3	203	164	1
3	208	168	1
3	213	172	1
3	218	176	1
3	221	180	1
3	225	184	1
3	232	188	1
3	237	192	1
3	242	196	1
3	245	200	1
3	249	204	1
3	254	208	1
3	259	212	1
3	264	216	1
3	267	220	1
3	272	224	1
3	278	228	1
3	283	232	1
3	288	236	1
3	291	240	1
3	295	244	1
3	301	248	1
3	307	252	1
3	314	256	1
3	317	260	1
3	321	264	1
3	326	268	1
3	331	272	1
3	336	276	1
3	339	280	1
3	344	284	1
3	351	288	1
3	357	292	1
3	363	296	1
3	366	300	1
3	372	304	1
3	378	308	1
3	383	312	1
3	388	316	1
3	391	320	1
3	395	324	1
3	400	328	1
3	405	332	1
3	412	336	1
3	415	340	1
3	419	344	1
3	424	348	1
3	429	352	1
3	435	356	1
3	438	360	1
3	444	364	1
3	450	368	1
3	455	372	1
3	460	376	1
3	463	380	1
3	468	384	1
3	474	388	1
3	481	392	1
3	486	396	1
3	489	400	1
3	493	404	1
3	498	408	1
3	503	412	1
3	508	416	1
3	511	420	1
3	515	424	1
3	521	428	1
3	528	432	1
3	535	436	1
3	538	440	1
3	544	444	1
3	550	448	1
3	555	452	1
3	560	456	1
3	563	460	1
3	567	464	1
3	572	468	1
3	577	472	1
3	582	476	1
3	585	480	1
3	589	484	1
3	594	488	1
3	599	492	1
3	604	496	1
3	607	500	1
3	611	504	1
3	616	508	1
3	621	512	1
3	626	516	1
3	629	520	1
3	634	524	1
3	640	528	1
3	645	532	1
3	650	536	1
3	653	540	1
3	658	544	1
3	664	548	1
3	670	552	1
3	676	556	1
3	679	560	1
3	684	564	1
3	690	568	1
3	695	572	1
3	701	576	1
3	704	580	1
3	709	584	1
3	714	588	1
3	719	592	1
3	724	596	1
3	727	600	1
3	732	604	1
3	755	620	1
3	760	624	1
3	766	628	1
3	771	632	1
3	778	636	1
3	781	640	1
3	785	644	1
3	790	648	1
3	796	652	1
3	806	660	1
3	819	668	1
3	835	680	1
3	841	684	1
3	846	688	1
3	851	692	1
3	856	696	1
3	859	700	1
3	864	704	1
3	879	712	1
3	884	716	1
3	887	720	1
3	891	724	1
3	896	728	1
3	901	732	1
3	908	736	1
3	911	740	1
3	915	744	1
3	920	748	1
3	925	752	1
3	930	756	1
3	933	760	1
3	937	764	1
3	942	768	1
3	947	772	1
3	953	776	1
3	956	780	1
3	968	788	1
3	973	792	1
3	978	796	1
3	981	800	1
3	986	804	1
3	998	812	1
3	1009	820	1
3	1013	824	1
3	1018	828	1
3	1023	832	1
3	1028	836	1
3	1031	840	1
3	1035	844	1
3	1040	848	1
3	1046	852	1
3	1056	860	1
3	1066	868	1
3	1071	872	1
3	1077	876	1
3	1080	880	1
3	1091	888	1
3	1103	896	1
3	1106	900	1
3	1131	916	1
3	1134	920	1
3	1147	928	1
3	1154	932	1
3	1161	936	1
3	1164	940	1
3	1171	944	1
3	1176	948	1
3	1181	952	1
3	1186	956	1
3	1189	960	1
3	1194	964	1
3	1208	972	1
3	1218	980	1
3	1224	984	1
3	1231	988	1
3	1237	992	1
3	1243	996	1
3	1246	1000	1
3	1275	1020	1
3	1280	1024	1
3	1292	1032	1
3	1299	1036	1
3	1302	1040	1
3	1312	1048	1
3	1319	1052	1
3	1324	1056	1
3	1327	1060	1
3	1331	1064	1
3	1336	1068	1
3	1341	1072	1
3	1347	1076	1
3	1350	1080	1
3	1355	1084	1
3	1361	1088	1
3	1377	1100	1
3	1382	1104	1
3	1401	1116	1
3	1404	1120	1
3	1415	1128	1
3	1428	1136	1
3	1431	1140	1
3	1435	1144	1
3	1441	1148	1
3	1447	1152	1
3	1452	1156	1
3	1455	1160	1
3	1461	1164	1
3	1466	1168	1
3	1471	1172	1
3	1476	1176	1
3	1479	1180	1
3	1483	1184	1
3	1489	1188	1
3	1496	1192	1
3	1503	1196	1
3	1506	1200	1
3	1512	1204	1
3	1519	1208	1
3	1532	1216	1
3	1535	1220	1
3	1539	1224	1
3	1544	1228	1
3	1549	1232	1
3	1554	1236	1
3	1557	1240	1
3	1562	1244	1
3	1568	1248	1
3	1574	1252	1
3	1584	1260	1
3	1590	1264	1
3	1604	1272	1
3	1611	1276	1
3	1614	1280	1
3	1626	1288	1
3	1631	1292	1
3	1636	1296	1
3	1639	1300	1
3	1643	1304	1
3	1648	1308	1
3	1653	1312	1
3	1659	1316	1
3	1662	1320	1
3	1668	1324	1
3	1674	1328	1
3	1680	1332	1
3	1686	1336	1
3	1689	1340	1
3	1695	1344	1
3	1700	1348	1
3	1705	1352	1
3	1710	1356	1
3	1713	1360	1
3	1717	1364	1
3	1722	1368	1
3	1727	1372	1
3	1732	1376	1
3	1735	1380	1
3	1739	1384	1
3	1745	1388	1
3	1753	1392	1
3	1758	1396	1
3	1761	1400	1
3	1765	1404	1
3	1770	1408	1
3	1775	1412	1
3	1780	1416	1
3	1783	1420	1
3	1787	1424	1
3	1792	1428	1
3	1797	1432	1
3	1803	1436	1
3	1806	1440	1
3	1811	1444	1
3	1816	1448	1
3	1821	1452	1
3	1826	1456	1
3	1829	1460	1
3	1833	1464	1
3	1839	1468	1
3	1845	1472	1
3	1850	1476	1
3	1853	1480	1
3	1858	1484	1
3	1865	1488	1
3	1873	1492	1
3	1878	1496	1
3	1881	1500	1
3	1885	1504	1
3	1890	1508	1
3	1895	1512	1
3	1900	1516	1
3	1903	1520	1
3	1907	1524	1
3	1912	1528	1
3	1918	1532	1
3	1925	1536	1
3	1928	1540	1
3	1933	1544	1
3	1938	1548	1
3	1944	1552	1
3	1950	1556	1
3	1953	1560	1
3	1957	1564	1
3	1962	1568	1
3	1967	1572	1
3	1972	1576	1
3	1975	1580	1
3	1980	1584	1
3	1986	1588	1
3	1991	1592	1
3	1996	1596	1
3	1999	1600	1
3	2003	1604	1
3	2009	1608	1
3	2015	1612	1
3	2020	1616	1
3	2023	1620	1
3	2028	1624	1
3	2034	1628	1
3	2039	1632	1
3	2044	1636	1
3	2047	1640	1
3	2052	1644	1
3	2060	1648	1
3	2065	1652	1
3	2070	1656	1
3	2073	1660	1
3	2077	1664	1
3	2082	1668	1
3	2087	1672	1
3	2093	1676	1
3	2096	1680	1
3	2102	1684	1
3	2109	1688	1
3	2115	1692	1
3	2120	1696	1
3	2123	1700	1
3	2127	1704	1
3	2132	1708	1
3	2138	1712	1
3	2145	1716	1
3	2148	1720	1
3	2153	1724	1
3	2158	1728	1
3	2163	1732	1
3	2168	1736	1
3	2171	1740	1
3	2176	1744	1
3	2182	1748	1
3	2187	1752	1
3	2192	1756	1
3	2195	1760	1
3	2200	1764	1
3	2207	1768	1
3	2213	1772	1
3	2219	1776	1
3	2222	1780	1
3	2227	1784	1
3	2232	1788	1
3	2237	1792	1
3	2242	1796	1
3	2245	1800	1
3	2250	1804	1
3	2256	1808	1
3	2262	1812	1
3	2271	1820	1
3	2276	1824	1
3	2283	1828	1
3	2296	1836	1
3	2299	1840	1
3	2303	1844	1
3	2308	1848	1
3	2313	1852	1
3	2318	1856	1
3	2321	1860	1
3	2325	1864	1
3	2331	1868	1
3	2348	1880	1
3	2355	1884	1
3	2360	1888	1
3	2365	1892	1
3	2370	1896	1
3	2373	1900	1
3	2378	1904	1
3	2389	1912	1
3	2395	1916	1
3	2398	1920	1
3	2405	1924	1
3	2410	1928	1
3	2415	1932	1
3	2420	1936	1
3	2423	1940	1
3	2428	1944	1
3	2440	1952	1
3	2449	1960	1
3	2454	1964	1
3	2461	1968	1
3	2478	1980	1
3	2483	1984	1
3	2489	1988	1
3	2496	1992	1
3	2502	1996	1
3	2505	2000	1
3	2509	2004	1
3	2515	2008	1
3	2527	2016	1
3	2530	2020	1
3	2536	2024	1
3	2542	2028	1
3	2547	2032	1
3	2553	2036	1
3	2556	2040	1
3	2562	2044	1
3	2570	2048	1
3	2575	2052	1
3	2580	2056	1
3	2583	2060	1
3	2587	2064	1
3	2592	2068	1
3	2598	2072	1
3	2608	2080	1
3	2619	2088	1
3	2632	2096	1
3	2635	2100	1
3	2639	2104	1
3	2644	2108	1
3	2649	2112	1
3	2656	2116	1
3	2659	2120	1
3	2663	2124	1
3	2668	2128	1
3	2673	2132	1
3	2678	2136	1
3	2681	2140	1
3	2685	2144	1
3	2690	2148	1
3	2695	2152	1
3	2700	2156	1
3	2703	2160	1
3	2707	2164	1
3	2712	2168	1
3	2717	2172	1
3	2722	2176	1
3	2725	2180	1
3	2730	2184	1
3	2742	2192	1
3	2751	2200	1
3	2756	2204	1
3	2769	2212	1
3	2774	2216	1
3	2777	2220	1
3	2781	2224	1
3	2786	2228	1
3	2792	2232	1
3	2801	2240	1
3	2806	2244	1
3	2818	2252	1
3	2827	2260	1
3	2831	2264	1
3	2837	2268	1
3	2848	2276	1
3	2851	2280	1
3	2855	2284	1
3	2860	2288	1
3	2866	2292	1
3	2875	2300	1
3	2880	2304	1
3	2891	2312	1
3	2897	2316	1
3	2900	2320	1
3	2911	2328	1
3	2928	2340	1
3	2934	2344	1
3	2941	2348	1
3	2958	2360	1
3	2968	2368	1
3	2973	2372	1
3	2978	2376	1
3	2981	2380	1
3	2986	2384	1
3	2993	2388	1
3	3000	2392	1
3	3007	2396	1
3	3010	2400	1
3	3022	2408	1
3	3028	2412	1
3	3034	2416	1
3	3037	2420	1
3	3042	2424	1
3	3056	2432	1
3	3066	2440	1
3	3071	2444	1
3	3078	2448	1
3	3083	2452	1
3	3088	2456	1
3	3091	2460	1
3	3095	2464	1
3	3100	2468	1
3	3106	2472	1
3	3116	2480	1
3	3127	2488	1
3	3140	2496	1
3	3143	2500	1
3	3149	2504	1
3	3154	2508	1
3	3159	2512	1
3	3165	2516	1
3	3168	2520	1
3	3174	2524	1
3	3198	2540	1
3	3210	2548	1
3	3215	2552	1
3	3221	2556	1
3	3224	2560	1
3	3229	2564	1
3	3235	2568	1
3	3241	2572	1
3	3246	2576	1
3	3249	2580	1
3	3253	2584	1
3	3258	2588	1
3	3264	2592	1
3	3275	2600	1
3	3279	2604	1
3	3284	2608	1
3	3290	2612	1
3	3300	2620	1
3	3311	2628	1
3	3323	2636	1
3	3326	2640	1
3	3332	2644	1
3	3339	2648	1
3	3345	2652	1
3	3351	2656	1
3	3354	2660	1
3	3359	2664	1
3	3366	2668	1
3	3371	2672	1
3	3376	2676	1
3	3379	2680	1
3	3383	2684	1
3	3389	2688	1
3	3396	2692	1
3	3403	2696	1
3	3406	2700	1
3	3413	2704	1
3	3418	2708	1
3	3423	2712	1
3	3428	2716	1
3	3431	2720	1
3	3436	2724	1
3	3454	2736	1
3	3457	2740	1
3	3461	2744	1
3	3467	2748	1
3	3474	2752	1
3	3483	2760	1
3	3487	2764	1
3	3492	2768	1
3	3497	2772	1
3	3503	2776	1
3	3506	2780	1
3	3519	2788	1
3	3526	2792	1
3	3532	2796	1
3	3535	2800	1
3	3539	2804	1
3	3545	2808	1
3	3562	2820	1
3	3579	2832	1
3	3585	2836	1
3	3588	2840	1
3	3619	2860	1
3	3623	2864	1
3	3628	2868	1
3	3633	2872	1
3	3639	2876	1
3	3642	2880	1
3	3660	2892	1
3	3670	2900	1
3	3689	2912	1
3	3695	2916	1
3	3698	2920	1
3	3703	2924	1
3	3708	2928	1
3	3715	2932	1
3	3720	2936	1
3	3723	2940	1
3	3727	2944	1
3	3732	2948	1
3	3737	2952	1
3	3742	2956	1
3	3745	2960	1
3	3751	2964	1
3	3756	2968	1
3	3761	2972	1
3	3766	2976	1
3	3769	2980	1
3	3773	2984	1
3	3778	2988	1
3	3783	2992	1
3	3788	2996	1
3	3791	3000	1
3	3795	3004	1
3	3801	3008	1
3	3814	3016	1
3	3817	3020	1
3	3821	3024	1
3	3826	3028	1
3	3831	3032	1
3	3836	3036	1
3	3839	3040	1
3	3843	3044	1
3	3849	3048	1
3	3860	3056	1
3	3863	3060	1
3	3867	3064	1
3	3873	3068	1
3	3884	3076	1
3	3887	3080	1
3	3892	3084	1
3	3912	3096	1
3	3915	3100	1
3	3919	3104	1
3	3924	3108	1
3	3929	3112	1
3	3934	3116	1
3	3937	3120	1
3	3941	3124	1
3	3946	3128	1
3	3951	3132	1
3	3957	3136	1
3	3960	3140	1
3	3970	3148	1
3	3975	3152	1
3	3980	3156	1
3	3983	3160	1
3	3987	3164	1
3	3993	3168	1
3	4004	3176	1
3	4007	3180	1
3	4011	3184	1
3	4016	3188	1
3	4022	3192	1
3	4033	3200	1
3	4037	3204	1
3	4042	3208	1
3	4047	3212	1
3	4052	3216	1
3	4055	3220	1
3	4059	3224	1
3	4064	3228	1
3	4070	3232	1
3	4079	3240	1
3	4083	3244	1
3	4088	3248	1
3	4094	3252	1
3	4103	3260	1
3	4107	3264	1
3	4113	3268	1
3	4124	3276	1
3	4127	3280	1
3	4132	3284	1
3	4144	3292	1
3	4150	3296	1
3	4153	3300	1
3	4159	3304	1
3	4164	3308	1
3	4169	3312	1
3	4174	3316	1
3	4177	3320	1
3	4181	3324	1
3	4186	3328	1
3	4191	3332	1
3	4196	3336	1
3	4199	3340	1
3	4203	3344	1
3	4209	3348	1
3	4216	3352	1
3	4222	3356	1
3	4225	3360	1
3	4231	3364	1
3	4236	3368	1
3	4241	3372	1
3	4246	3376	1
3	4249	3380	1
3	4253	3384	1
3	4258	3388	1
3	4264	3392	1
3	4271	3396	1
3	4274	3400	1
3	4279	3404	1
3	4286	3408	1
3	4291	3412	1
3	4296	3416	1
3	4299	3420	1
3	4303	3424	1
3	4308	3428	1
3	4314	3432	1
3	4320	3436	1
3	4323	3440	1
3	4327	3444	1
3	4333	3448	1
3	4340	3452	1
3	4347	3456	1
3	4350	3460	1
3	4355	3464	1
3	4360	3468	1
3	4365	3472	1
3	4370	3476	1
3	4373	3480	1
3	4378	3484	1
3	4389	3492	1
3	4396	3496	1
3	4399	3500	1
3	4403	3504	1
3	4408	3508	1
3	4414	3512	1
3	4423	3520	1
3	4427	3524	1
3	4434	3528	1
3	4439	3532	1
3	4444	3536	1
3	4447	3540	1
3	4451	3544	1
3	4456	3548	1
3	4461	3552	1
3	4467	3556	1
3	4470	3560	1
3	4481	3568	1
3	4499	3580	1
3	4503	3584	1
3	4508	3588	1
3	4513	3592	1
3	4519	3596	1
3	4522	3600	1
4	26	24	1
4	32	28	1
4	39	32	1
4	48	40	1
4	53	44	1
4	64	52	1
4	69	56	1
4	72	60	1
4	77	64	1
4	83	68	1
4	88	72	1
4	95	76	1
4	98	80	1
4	102	84	1
4	107	88	1
4	112	92	1
4	117	96	1
4	120	100	1
4	124	104	1
4	130	108	1
4	138	112	1
4	143	116	1
4	146	120	1
4	150	124	1
4	155	128	1
4	161	132	1
4	170	140	1
4	175	144	1
4	189	152	1
4	197	156	1
4	200	160	1
4	204	164	1
4	209	168	1
4	214	172	1
4	219	176	1
4	222	180	1
4	226	184	1
4	233	188	1
4	238	192	1
4	243	196	1
4	246	200	1
4	250	204	1
4	255	208	1
4	260	212	1
4	265	216	1
4	268	220	1
4	273	224	1
4	284	232	1
4	289	236	1
4	292	240	1
4	296	244	1
4	302	248	1
4	315	256	1
4	318	260	1
4	322	264	1
4	327	268	1
4	332	272	1
4	337	276	1
4	340	280	1
4	345	284	1
4	364	296	1
4	367	300	1
4	384	312	1
4	389	316	1
4	392	320	1
4	396	324	1
4	401	328	1
4	406	332	1
4	413	336	1
4	416	340	1
4	420	344	1
4	425	348	1
4	430	352	1
4	436	356	1
4	439	360	1
4	456	372	1
4	461	376	1
4	464	380	1
4	469	384	1
4	482	392	1
4	487	396	1
4	490	400	1
4	494	404	1
4	499	408	1
4	504	412	1
4	509	416	1
4	512	420	1
4	516	424	1
4	522	428	1
4	539	440	1
4	556	452	1
4	561	456	1
4	564	460	1
4	568	464	1
4	573	468	1
4	578	472	1
4	583	476	1
4	586	480	1
4	590	484	1
4	595	488	1
4	600	492	1
4	605	496	1
4	608	500	1
4	612	504	1
4	617	508	1
4	622	512	1
4	627	516	1
4	630	520	1
4	635	524	1
4	646	532	1
4	651	536	1
4	654	540	1
4	659	544	1
4	671	552	1
4	680	560	1
4	685	564	1
4	696	572	1
4	702	576	1
4	705	580	1
4	715	588	1
4	720	592	1
4	725	596	1
4	728	600	1
4	733	604	1
4	740	608	1
4	747	612	1
4	753	616	1
4	756	620	1
4	761	624	1
4	772	632	1
4	779	636	1
4	782	640	1
4	786	644	1
4	791	648	1
4	797	652	1
4	804	656	1
4	807	660	1
4	813	664	1
4	827	672	1
4	833	676	1
4	836	680	1
4	842	684	1
4	847	688	1
4	852	692	1
4	857	696	1
4	860	700	1
4	865	704	1
4	872	708	1
4	885	716	1
4	888	720	1
4	892	724	1
4	897	728	1
4	902	732	1
4	909	736	1
4	912	740	1
4	916	744	1
4	921	748	1
4	926	752	1
4	931	756	1
4	934	760	1
4	938	764	1
4	943	768	1
4	948	772	1
4	954	776	1
4	957	780	1
4	962	784	1
4	969	788	1
4	974	792	1
4	979	796	1
4	982	800	1
4	987	804	1
4	993	808	1
4	999	812	1
4	1007	816	1
4	1010	820	1
4	1014	824	1
4	1019	828	1
4	1024	832	1
4	1029	836	1
4	1032	840	1
4	1036	844	1
4	1041	848	1
4	1047	852	1
4	1054	856	1
4	1057	860	1
4	1062	864	1
4	1067	868	1
4	1072	872	1
4	1078	876	1
4	1081	880	1
4	1086	884	1
4	1092	888	1
4	1098	892	1
4	1104	896	1
4	1107	900	1
4	1113	904	1
4	1120	908	1
4	1126	912	1
4	1132	916	1
4	1135	920	1
4	1141	924	1
4	1165	940	1
4	1177	948	1
4	1182	952	1
4	1187	956	1
4	1190	960	1
4	1195	964	1
4	1202	968	1
4	1216	976	1
4	1219	980	1
4	1244	996	1
4	1247	1000	1
4	1253	1004	1
4	1260	1008	1
4	1267	1012	1
4	1273	1016	1
4	1276	1020	1
4	1281	1024	1
4	1287	1028	1
4	1293	1032	1
4	1303	1040	1
4	1308	1044	1
4	1313	1048	1
4	1320	1052	1
4	1325	1056	1
4	1328	1060	1
4	1332	1064	1
4	1337	1068	1
4	1342	1072	1
4	1348	1076	1
4	1351	1080	1
4	1362	1088	1
4	1369	1092	1
4	1375	1096	1
4	1378	1100	1
4	1383	1104	1
4	1390	1108	1
4	1396	1112	1
4	1402	1116	1
4	1405	1120	1
4	1410	1124	1
4	1416	1128	1
4	1424	1132	1
4	1429	1136	1
4	1432	1140	1
4	1436	1144	1
4	1442	1148	1
4	1453	1156	1
4	1456	1160	1
4	1462	1164	1
4	1467	1168	1
4	1472	1172	1
4	1477	1176	1
4	1480	1180	1
4	1484	1184	1
4	1490	1188	1
4	1507	1200	1
4	1528	1212	1
4	1533	1216	1
4	1536	1220	1
4	1540	1224	1
4	1545	1228	1
4	1550	1232	1
4	1555	1236	1
4	1558	1240	1
4	1563	1244	1
4	1575	1252	1
4	1582	1256	1
4	1585	1260	1
4	1598	1268	1
4	1615	1280	1
4	1622	1284	1
4	1627	1288	1
4	1632	1292	1
4	1637	1296	1
4	1640	1300	1
4	1644	1304	1
4	1649	1308	1
4	1654	1312	1
4	1660	1316	1
4	1663	1320	1
4	1681	1332	1
4	1690	1340	1
4	1696	1344	1
4	1701	1348	1
4	1706	1352	1
4	1711	1356	1
4	1714	1360	1
4	1718	1364	1
4	1723	1368	1
4	1728	1372	1
4	1733	1376	1
4	1736	1380	1
4	1740	1384	1
4	1746	1388	1
4	1759	1396	1
4	1762	1400	1
4	1766	1404	1
4	1771	1408	1
4	1776	1412	1
4	1781	1416	1
4	1784	1420	1
4	1788	1424	1
4	1793	1428	1
4	1798	1432	1
4	1804	1436	1
4	1807	1440	1
4	1817	1448	1
4	1822	1452	1
4	1827	1456	1
4	1830	1460	1
4	1834	1464	1
4	1840	1468	1
4	1851	1476	1
4	1854	1480	1
4	1859	1484	1
4	1879	1496	1
4	1882	1500	1
4	1886	1504	1
4	1891	1508	1
4	1896	1512	1
4	1901	1516	1
4	1904	1520	1
4	1908	1524	1
4	1913	1528	1
4	1919	1532	1
4	1929	1540	1
4	1939	1548	1
4	1945	1552	1
4	1954	1560	1
4	1958	1564	1
4	1963	1568	1
4	1968	1572	1
4	1973	1576	1
4	1976	1580	1
4	1981	1584	1
4	1992	1592	1
4	1997	1596	1
4	2000	1600	1
4	2004	1604	1
4	2010	1608	1
4	2021	1616	1
4	2024	1620	1
4	2029	1624	1
4	2040	1632	1
4	2045	1636	1
4	2048	1640	1
4	2053	1644	1
4	2066	1652	1
4	2071	1656	1
4	2074	1660	1
4	2078	1664	1
4	2083	1668	1
4	2088	1672	1
4	2094	1676	1
4	2097	1680	1
4	2121	1696	1
4	2124	1700	1
4	2128	1704	1
4	2133	1708	1
4	2139	1712	1
4	2149	1720	1
4	2159	1728	1
4	2164	1732	1
4	2169	1736	1
4	2172	1740	1
4	2177	1744	1
4	2188	1752	1
4	2193	1756	1
4	2196	1760	1
4	2201	1764	1
4	2220	1776	1
4	2223	1780	1
4	2233	1788	1
4	2238	1792	1
4	2243	1796	1
4	2246	1800	1
4	2251	1804	1
4	2263	1812	1
4	2269	1816	1
4	2272	1820	1
4	2277	1824	1
4	2292	1832	1
4	2297	1836	1
4	2300	1840	1
4	2304	1844	1
4	2309	1848	1
4	2314	1852	1
4	2319	1856	1
4	2322	1860	1
4	2326	1864	1
4	2332	1868	1
4	2339	1872	1
4	2346	1876	1
4	2349	1880	1
4	2361	1888	1
4	2366	1892	1
4	2371	1896	1
4	2374	1900	1
4	2379	1904	1
4	2385	1908	1
4	2390	1912	1
4	2396	1916	1
4	2399	1920	1
4	2411	1928	1
4	2416	1932	1
4	2421	1936	1
4	2424	1940	1
4	2429	1944	1
4	2435	1948	1
4	2441	1952	1
4	2447	1956	1
4	2450	1960	1
4	2455	1964	1
4	2469	1972	1
4	2476	1976	1
4	2479	1980	1
4	2490	1988	1
4	2506	2000	1
4	2510	2004	1
4	2516	2008	1
4	2522	2012	1
4	2528	2016	1
4	2531	2020	1
4	2548	2032	1
4	2554	2036	1
4	2557	2040	1
4	2576	2052	1
4	2581	2056	1
4	2584	2060	1
4	2588	2064	1
4	2593	2068	1
4	2599	2072	1
4	2606	2076	1
4	2609	2080	1
4	2614	2084	1
4	2620	2088	1
4	2628	2092	1
4	2633	2096	1
4	2636	2100	1
4	2640	2104	1
4	2645	2108	1
4	2650	2112	1
4	2657	2116	1
4	2660	2120	1
4	2664	2124	1
4	2669	2128	1
4	2674	2132	1
4	2679	2136	1
4	2682	2140	1
4	2686	2144	1
4	2691	2148	1
4	2696	2152	1
4	2701	2156	1
4	2704	2160	1
4	2708	2164	1
4	2713	2168	1
4	2718	2172	1
4	2723	2176	1
4	2726	2180	1
4	2731	2184	1
4	2737	2188	1
4	2743	2192	1
4	2749	2196	1
4	2752	2200	1
4	2757	2204	1
4	2765	2208	1
4	2770	2212	1
4	2775	2216	1
4	2778	2220	1
4	2782	2224	1
4	2787	2228	1
4	2793	2232	1
4	2799	2236	1
4	2802	2240	1
4	2807	2244	1
4	2813	2248	1
4	2819	2252	1
4	2825	2256	1
4	2828	2260	1
4	2832	2264	1
4	2838	2268	1
4	2844	2272	1
4	2849	2276	1
4	2852	2280	1
4	2856	2284	1
4	2861	2288	1
4	2867	2292	1
4	2873	2296	1
4	2876	2300	1
4	2881	2304	1
4	2887	2308	1
4	2892	2312	1
4	2898	2316	1
4	2901	2320	1
4	2906	2324	1
4	2912	2328	1
4	2919	2332	1
4	2926	2336	1
4	2929	2340	1
4	2949	2352	1
4	2956	2356	1
4	2959	2360	1
4	2964	2364	1
4	2969	2368	1
4	2974	2372	1
4	2979	2376	1
4	2982	2380	1
4	2987	2384	1
4	3011	2400	1
4	3017	2404	1
4	3029	2412	1
4	3038	2420	1
4	3043	2424	1
4	3050	2428	1
4	3064	2436	1
4	3067	2440	1
4	3079	2448	1
4	3084	2452	1
4	3089	2456	1
4	3092	2460	1
4	3096	2464	1
4	3101	2468	1
4	3107	2472	1
4	3114	2476	1
4	3117	2480	1
4	3122	2484	1
4	3128	2488	1
4	3135	2492	1
4	3144	2500	1
4	3150	2504	1
4	3155	2508	1
4	3160	2512	1
4	3166	2516	1
4	3169	2520	1
4	3182	2528	1
4	3189	2532	1
4	3196	2536	1
4	3199	2540	1
4	3206	2544	1
4	3211	2548	1
4	3216	2552	1
4	3222	2556	1
4	3225	2560	1
4	3236	2568	1
4	3247	2576	1
4	3250	2580	1
4	3254	2584	1
4	3259	2588	1
4	3265	2592	1
4	3273	2596	1
4	3276	2600	1
4	3280	2604	1
4	3285	2608	1
4	3291	2612	1
4	3298	2616	1
4	3301	2620	1
4	3306	2624	1
4	3312	2628	1
4	3318	2632	1
4	3324	2636	1
4	3327	2640	1
4	3352	2656	1
4	3355	2660	1
4	3367	2668	1
4	3372	2672	1
4	3377	2676	1
4	3380	2680	1
4	3384	2684	1
4	3390	2688	1
4	3407	2700	1
4	3419	2708	1
4	3424	2712	1
4	3429	2716	1
4	3432	2720	1
4	3437	2724	1
4	3444	2728	1
4	3450	2732	1
4	3455	2736	1
4	3458	2740	1
4	3462	2744	1
4	3468	2748	1
4	3481	2756	1
4	3484	2760	1
4	3488	2764	1
4	3493	2768	1
4	3498	2772	1
4	3504	2776	1
4	3507	2780	1
4	3513	2784	1
4	3536	2800	1
4	3540	2804	1
4	3546	2808	1
4	3553	2812	1
4	3560	2816	1
4	3563	2820	1
4	3569	2824	1
4	3575	2828	1
4	3580	2832	1
4	3586	2836	1
4	3589	2840	1
4	3595	2844	1
4	3602	2848	1
4	3609	2852	1
4	3617	2856	1
4	3620	2860	1
4	3624	2864	1
4	3629	2868	1
4	3634	2872	1
4	3640	2876	1
4	3643	2880	1
4	3649	2884	1
4	3655	2888	1
4	3661	2892	1
4	3668	2896	1
4	3671	2900	1
4	3677	2904	1
4	3684	2908	1
4	3696	2916	1
4	3699	2920	1
4	3709	2928	1
4	3716	2932	1
4	3721	2936	1
4	3724	2940	1
4	3728	2944	1
4	3733	2948	1
4	3738	2952	1
4	3743	2956	1
4	3746	2960	1
4	3752	2964	1
4	3757	2968	1
4	3762	2972	1
4	3767	2976	1
4	3770	2980	1
4	3774	2984	1
4	3779	2988	1
4	3784	2992	1
4	3789	2996	1
4	3792	3000	1
4	3796	3004	1
4	3802	3008	1
4	3810	3012	1
4	3815	3016	1
4	3818	3020	1
4	3822	3024	1
4	3827	3028	1
4	3832	3032	1
4	3837	3036	1
4	3840	3040	1
4	3844	3044	1
4	3850	3048	1
4	3856	3052	1
4	3861	3056	1
4	3864	3060	1
4	3868	3064	1
4	3874	3068	1
4	3880	3072	1
4	3885	3076	1
4	3888	3080	1
4	3893	3084	1
4	3900	3088	1
4	3906	3092	1
4	3913	3096	1
4	3916	3100	1
4	3920	3104	1
4	3925	3108	1
4	3930	3112	1
4	3935	3116	1
4	3938	3120	1
4	3942	3124	1
4	3947	3128	1
4	3952	3132	1
4	3958	3136	1
4	3961	3140	1
4	3966	3144	1
4	3971	3148	1
4	3976	3152	1
4	3981	3156	1
4	3984	3160	1
4	3988	3164	1
4	3994	3168	1
4	4000	3172	1
4	4005	3176	1
4	4008	3180	1
4	4012	3184	1
4	4017	3188	1
4	4023	3192	1
4	4031	3196	1
4	4034	3200	1
4	4038	3204	1
4	4043	3208	1
4	4048	3212	1
4	4053	3216	1
4	4056	3220	1
4	4060	3224	1
4	4065	3228	1
4	4071	3232	1
4	4077	3236	1
4	4080	3240	1
4	4084	3244	1
4	4089	3248	1
4	4095	3252	1
4	4101	3256	1
4	4104	3260	1
4	4108	3264	1
4	4114	3268	1
4	4120	3272	1
4	4125	3276	1
4	4128	3280	1
4	4133	3284	1
4	4139	3288	1
4	4145	3292	1
4	4154	3300	1
4	4160	3304	1
4	4165	3308	1
4	4170	3312	1
4	4175	3316	1
4	4178	3320	1
4	4182	3324	1
4	4187	3328	1
4	4192	3332	1
4	4197	3336	1
4	4200	3340	1
4	4204	3344	1
4	4210	3348	1
4	4226	3360	1
4	4232	3364	1
4	4237	3368	1
4	4242	3372	1
4	4247	3376	1
4	4250	3380	1
4	4254	3384	1
4	4259	3388	1
4	4265	3392	1
4	4275	3400	1
4	4287	3408	1
4	4292	3412	1
4	4297	3416	1
4	4300	3420	1
4	4304	3424	1
4	4309	3428	1
4	4315	3432	1
4	4324	3440	1
4	4328	3444	1
4	4334	3448	1
4	4351	3460	1
4	4361	3468	1
4	4366	3472	1
4	4371	3476	1
4	4374	3480	1
4	4379	3484	1
4	4385	3488	1
4	4390	3492	1
4	4397	3496	1
4	4400	3500	1
4	4404	3504	1
4	4409	3508	1
4	4415	3512	1
4	4421	3516	1
4	4424	3520	1
4	4428	3524	1
4	4435	3528	1
4	4440	3532	1
4	4445	3536	1
4	4448	3540	1
4	4452	3544	1
4	4457	3548	1
4	4462	3552	1
4	4468	3556	1
4	4471	3560	1
4	4476	3564	1
4	4482	3568	1
4	4489	3572	1
4	4497	3576	1
4	4500	3580	1
4	4504	3584	1
4	4509	3588	1
4	4514	3592	1
4	4520	3596	1
4	4523	3600	1
5	35	30	1
5	80	65	1
5	133	110	1
5	185	150	1
5	192	155	1
5	736	605	1
5	743	610	1
5	750	615	1
5	800	655	1
5	809	660	1
5	823	670	1
5	830	675	1
5	868	705	1
5	959	780	1
5	990	805	1
5	1002	815	1
5	1050	855	1
5	1059	860	1
5	1083	880	1
5	1095	890	1
5	1109	900	1
5	1116	905	1
5	1123	910	1
5	1137	920	1
5	1198	965	1
5	1212	975	1
5	1249	1000	1
5	1256	1005	1
5	1263	1010	1
5	1270	1015	1
5	1284	1025	1
5	1305	1040	1
5	1365	1090	1
5	1372	1095	1
5	1386	1105	1
5	1393	1110	1
5	1407	1120	1
5	1419	1130	1
5	1523	1210	1
5	1578	1255	1
5	1594	1265	1
5	1617	1280	1
5	2266	1815	1
5	2287	1830	1
5	2335	1870	1
5	2342	1875	1
5	2382	1905	1
5	2432	1945	1
5	2444	1955	1
5	2465	1970	1
5	2472	1975	1
5	2519	2010	1
5	2602	2075	1
5	2611	2080	1
5	2623	2090	1
5	2734	2185	1
5	2746	2195	1
5	2760	2205	1
5	2796	2235	1
5	2810	2245	1
5	2822	2255	1
5	2841	2270	1
5	2870	2295	1
5	2884	2305	1
5	2903	2320	1
5	2915	2330	1
5	2922	2335	1
5	2945	2350	1
5	2952	2355	1
5	2961	2360	1
5	3013	2400	1
5	3046	2425	1
5	3060	2435	1
5	3110	2475	1
5	3119	2480	1
5	3131	2490	1
5	3178	2525	1
5	3185	2530	1
5	3192	2535	1
5	3201	2540	1
5	3268	2595	1
5	3294	2615	1
5	3303	2620	1
5	3315	2630	1
5	3440	2725	1
5	3447	2730	1
5	3478	2755	1
5	3509	2780	1
5	3549	2810	1
5	3556	2815	1
5	3565	2820	1
5	3572	2825	1
5	3591	2840	1
5	3598	2845	1
5	3605	2850	1
5	3612	2855	1
5	3645	2880	1
5	3652	2885	1
5	3664	2895	1
5	3673	2900	1
5	3680	2905	1
5	3805	3010	1
5	3853	3050	1
5	3877	3070	1
5	3896	3085	1
5	3903	3090	1
5	3963	3140	1
5	3997	3170	1
5	4026	3195	1
5	4074	3235	1
5	4098	3255	1
5	4117	3270	1
5	4136	3285	1
5	4382	3485	1
5	4418	3515	1
5	4473	3560	1
5	4485	3570	1
5	4492	3575	1
5	4525	3600	1
6	35	30	26
6	80	65	57
6	133	110	98
6	185	150	134
6	192	155	135
6	736	605	573
6	743	610	542
6	750	615	503
6	800	655	503
6	809	660	504
6	823	670	62
6	830	675	63
6	868	705	89
6	959	780	124
6	990	805	141
6	1002	815	143
6	1050	855	179
6	1059	860	152
6	1083	880	96
6	1095	890	82
6	1109	900	84
6	1116	905	49
6	1123	910	46
6	1137	920	36
6	1198	965	73
6	1212	975	71
6	1249	1000	92
6	1256	1005	93
6	1263	1010	86
6	1270	1015	47
6	1284	1025	49
6	1305	1040	36
6	1365	1090	82
6	1372	1095	83
6	1386	1105	89
6	1393	1110	82
6	1407	1120	76
6	1419	1130	38
6	1523	1210	114
6	1578	1255	147
6	1594	1265	153
6	1617	1280	156
6	2266	1815	683
6	2287	1830	618
6	2335	1870	614
6	2342	1875	607
6	2382	1905	621
6	2432	1945	129
6	2444	1955	123
6	2465	1970	98
6	2472	1975	99
6	2519	2010	102
6	2602	2075	127
6	2611	2080	124
6	2623	2090	118
6	2734	2185	209
6	2746	2195	183
6	2760	2205	129
6	2796	2235	151
6	2810	2245	153
6	2822	2255	67
6	2841	2270	74
6	2870	2295	87
6	2884	2305	69
6	2903	2320	72
6	2915	2330	74
6	2922	2335	63
6	2945	2350	54
6	2952	2355	47
6	2961	2360	36
6	3013	2400	68
6	3046	2425	89
6	3060	2435	83
6	3110	2475	119
6	3119	2480	116
6	3131	2490	86
6	3178	2525	97
6	3185	2530	94
6	3192	2535	59
6	3201	2540	56
6	3268	2595	103
6	3294	2615	87
6	3303	2620	88
6	3315	2630	94
6	3440	2725	181
6	3447	2730	134
6	3478	2755	139
6	3509	2780	156
6	3549	2810	178
6	3556	2815	87
6	3565	2820	88
6	3572	2825	69
6	3591	2840	56
6	3598	2845	33
6	3605	2850	34
6	3612	2855	31
6	3645	2880	52
6	3652	2885	41
6	3664	2895	47
6	3673	2900	48
6	3680	2905	49
6	3805	3010	126
6	3853	3050	162
6	3877	3070	174
6	3896	3085	181
6	3903	3090	182
6	3963	3140	128
6	3997	3170	118
6	4026	3195	123
6	4074	3235	147
6	4098	3255	163
6	4117	3270	126
6	4136	3285	113
6	4382	3485	289
6	4418	3515	279
6	4473	3560	304
6	4485	3570	298
6	4492	3575	287
6	4525	3600	112
7	35	30	1
7	80	65	1
7	133	110	1
7	185	150	1
7	192	155	1
7	736	605	1
7	743	610	1
7	750	615	1
7	800	655	1
7	809	660	1
7	823	670	1
7	830	675	1
7	868	705	1
7	959	780	1
7	990	805	1
7	1002	815	1
7	1050	855	1
7	1059	860	1
7	1083	880	1
7	1095	890	1
7	1109	900	1
7	1116	905	1
7	1123	910	1
7	1137	920	1
7	1198	965	1
7	1212	975	1
7	1249	1000	1
7	1256	1005	1
7	1263	1010	1
7	1270	1015	1
7	1284	1025	1
7	1305	1040	1
7	1365	1090	1
7	1372	1095	1
7	1386	1105	1
7	1393	1110	1
7	1407	1120	1
7	1419	1130	1
7	1523	1210	1
7	1578	1255	1
7	1594	1265	1
7	1617	1280	1
7	2266	1815	1
7	2287	1830	1
7	2335	1870	1
7	2342	1875	1
7	2382	1905	1
7	2432	1945	1
7	2444	1955	1
7	2465	1970	1
7	2472	1975	1
7	2519	2010	1
7	2602	2075	1
7	2611	2080	1
7	2623	2090	1
7	2734	2185	1
7	2746	2195	1
7	2760	2205	1
7	2796	2235	1
7	2810	2245	1
7	2822	2255	1
7	2841	2270	1
7	2870	2295	1
7	2884	2305	1
7	2903	2320	1
7	2915	2330	1
7	2922	2335	1
7	2945	2350	1
7	2952	2355	1
7	2961	2360	1
7	3013	2400	1
7	3046	2425	1
7	3060	2435	1
7	3110	2475	1
7	3119	2480	1
7	3131	2490	1
7	3178	2525	1
7	3185	2530	1
7	3192	2535	1
7	3201	2540	1
7	3268	2595	1
7	3294	2615	1
7	3303	2620	1
7	3315	2630	1
7	3440	2725	1
7	3447	2730	1
7	3478	2755	1
7	3509	2780	1
7	3549	2810	1
7	3556	2815	1
7	3565	2820	1
7	3572	2825	1
7	3591	2840	1
7	3598	2845	1
7	3605	2850	1
7	3612	2855	1
7	3645	2880	1
7	3652	2885	1
7	3664	2895	1
7	3673	2900	1
7	3680	2905	1
7	3805	3010	1
7	3853	3050	1
7	3877	3070	1
7	3896	3085	1
7	3903	3090	1
7	3963	3140	1
7	3997	3170	1
7	4026	3195	1
7	4074	3235	1
7	4098	3255	1
7	4117	3270	1
7	4136	3285	1
7	4382	3485	1
7	4418	3515	1
7	4473	3560	1
7	4485	3570	1
7	4492	3575	1
7	4525	3600	1
8	42	35	1
8	56	45	1
8	164	135	1
8	178	145	1
8	276	225	1
8	305	250	1
8	348	285	1
8	355	290	1
8	369	300	1
8	376	305	1
8	441	360	1
8	448	365	1
8	472	385	1
8	525	430	1
8	532	435	1
8	541	440	1
8	548	445	1
8	638	525	1
8	662	545	1
8	674	555	1
8	688	565	1
8	707	580	1
8	764	625	1
8	816	665	1
8	875	710	1
8	1144	925	1
8	1151	930	1
8	1158	935	1
8	1167	940	1
8	1205	970	1
8	1221	980	1
8	1228	985	1
8	1235	990	1
8	1296	1035	1
8	1353	1080	1
8	1445	1150	1
8	1493	1190	1
8	1500	1195	1
8	1509	1200	1
8	1516	1205	1
8	1566	1245	1
8	1587	1260	1
8	1601	1270	1
8	1608	1275	1
8	1665	1320	1
8	1672	1325	1
8	1684	1335	1
8	1749	1390	1
8	1809	1440	1
8	1843	1470	1
8	1862	1485	1
8	1869	1490	1
8	1922	1535	1
8	1931	1540	1
8	1948	1555	1
8	1984	1585	1
8	2013	1610	1
8	2032	1625	1
8	2056	1645	1
8	2099	1680	1
8	2106	1685	1
8	2113	1690	1
8	2142	1715	1
8	2151	1720	1
8	2180	1745	1
8	2204	1765	1
8	2211	1770	1
8	2225	1780	1
8	2254	1805	1
8	2280	1825	1
8	2351	1880	1
8	2401	1920	1
8	2458	1965	1
8	2481	1980	1
8	2493	1990	1
8	2500	1995	1
8	2533	2020	1
8	2540	2025	1
8	2559	2040	1
8	2566	2045	1
8	2931	2340	1
8	2938	2345	1
8	2990	2385	1
8	2997	2390	1
8	3004	2395	1
8	3020	2405	1
8	3032	2415	1
8	3053	2430	1
8	3069	2440	1
8	3138	2495	1
8	3171	2520	1
8	3227	2560	1
8	3239	2570	1
8	3329	2640	1
8	3336	2645	1
8	3343	2650	1
8	3357	2660	1
8	3393	2690	1
8	3400	2695	1
8	3409	2700	1
8	3471	2750	1
8	3516	2785	1
8	3523	2790	1
8	3530	2795	1
8	3687	2910	1
8	3701	2920	1
8	4148	3295	1
8	4213	3350	1
8	4220	3355	1
8	4268	3395	1
8	4277	3400	1
8	4318	3435	1
8	4337	3450	1
8	4344	3455	1
8	4353	3460	1
9	42	35	31
9	56	45	37
9	164	135	123
9	178	145	129
9	276	225	205
9	305	250	214
9	348	285	237
9	355	290	154
9	369	300	152
9	376	305	77
9	441	360	108
9	448	365	77
9	472	385	93
9	525	430	126
9	532	435	127
9	541	440	76
9	548	445	77
9	638	525	137
9	662	545	113
9	674	555	119
9	688	565	121
9	707	580	132
9	764	625	97
9	816	665	117
9	875	710	154
9	1144	925	357
9	1151	930	346
9	1158	935	307
9	1167	940	272
9	1205	970	258
9	1221	980	52
9	1228	985	53
9	1235	990	54
9	1296	1035	91
9	1353	1080	108
9	1445	1150	166
9	1493	1190	202
9	1500	1195	203
9	1509	1200	164
9	1516	1205	121
9	1566	1245	93
9	1587	1260	68
9	1601	1270	74
9	1608	1275	71
9	1665	1320	112
9	1672	1325	77
9	1684	1335	71
9	1749	1390	118
9	1809	1440	164
9	1843	1470	146
9	1862	1485	157
9	1869	1490	154
9	1922	1535	143
9	1931	1540	96
9	1948	1555	83
9	1984	1585	97
9	2013	1610	118
9	2032	1625	89
9	2056	1645	101
9	2099	1680	124
9	2106	1685	97
9	2113	1690	78
9	2142	1715	87
9	2151	1720	72
9	2180	1745	61
9	2204	1765	77
9	2211	1770	78
9	2225	1780	64
9	2254	1805	81
9	2280	1825	77
9	2351	1880	112
9	2401	1920	148
9	2458	1965	181
9	2481	1980	172
9	2493	1990	162
9	2500	1995	111
9	2533	2020	96
9	2540	2025	57
9	2559	2040	56
9	2566	2045	53
9	2931	2340	344
9	2938	2345	321
9	2990	2385	357
9	2997	2390	346
9	3004	2395	347
9	3020	2405	61
9	3032	2415	67
9	3053	2430	42
9	3069	2440	48
9	3138	2495	99
9	3171	2520	112
9	3227	2560	144
9	3239	2570	138
9	3329	2640	196
9	3336	2645	149
9	3343	2650	126
9	3357	2660	96
9	3393	2690	118
9	3400	2695	51
9	3409	2700	52
9	3471	2750	98
9	3516	2785	121
9	3523	2790	98
9	3530	2795	99
9	3687	2910	206
9	3701	2920	168
9	4148	3295	507
9	4213	3350	558
9	4220	3355	559
9	4268	3395	483
9	4277	3400	476
9	4318	3435	139
9	4337	3450	98
9	4344	3455	99
9	4353	3460	64
10	42	35	1
10	56	45	1
10	164	135	1
10	178	145	1
10	276	225	1
10	305	250	1
10	348	285	1
10	355	290	1
10	369	300	1
10	376	305	1
10	441	360	1
10	448	365	1
10	472	385	1
10	525	430	1
10	532	435	1
10	541	440	1
10	548	445	1
10	638	525	1
10	662	545	1
10	674	555	1
10	688	565	1
10	707	580	1
10	764	625	1
10	816	665	1
10	875	710	1
10	1144	925	1
10	1151	930	1
10	1158	935	1
10	1167	940	1
10	1205	970	1
10	1221	980	1
10	1228	985	1
10	1235	990	1
10	1296	1035	1
10	1353	1080	1
10	1445	1150	1
10	1493	1190	1
10	1500	1195	1
10	1509	1200	1
10	1516	1205	1
10	1566	1245	1
10	1587	1260	1
10	1601	1270	1
10	1608	1275	1
10	1665	1320	1
10	1672	1325	1
10	1684	1335	1
10	1749	1390	1
10	1809	1440	1
10	1843	1470	1
10	1862	1485	1
10	1869	1490	1
10	1922	1535	1
10	1931	1540	1
10	1948	1555	1
10	1984	1585	1
10	2013	1610	1
10	2032	1625	1
10	2056	1645	1
10	2099	1680	1
10	2106	1685	1
10	2113	1690	1
10	2142	1715	1
10	2151	1720	1
10	2180	1745	1
10	2204	1765	1
10	2211	1770	1
10	2225	1780	1
10	2254	1805	1
10	2280	1825	1
10	2351	1880	1
10	2401	1920	1
10	2458	1965	1
10	2481	1980	1
10	2493	1990	1
10	2500	1995	1
10	2533	2020	1
10	2540	2025	1
10	2559	2040	1
10	2566	2045	1
10	2931	2340	1
10	2938	2345	1
10	2990	2385	1
10	2997	2390	1
10	3004	2395	1
10	3020	2405	1
10	3032	2415	1
10	3053	2430	1
10	3069	2440	1
10	3138	2495	1
10	3171	2520	1
10	3227	2560	1
10	3239	2570	1
10	3329	2640	1
10	3336	2645	1
10	3343	2650	1
10	3357	2660	1
10	3393	2690	1
10	3400	2695	1
10	3409	2700	1
10	3471	2750	1
10	3516	2785	1
10	3523	2790	1
10	3530	2795	1
10	3687	2910	1
10	3701	2920	1
10	4148	3295	1
10	4213	3350	1
10	4220	3355	1
10	4268	3395	1
10	4277	3400	1
10	4318	3435	1
10	4337	3450	1
10	4344	3455	1
10	4353	3460	1

