version 2
run FourthVerification-11-20201214-15:14:42-220663
attr configname FourthVerification
attr datetime 20201214-15:14:42
attr experiment FourthVerification
attr inifile omnetpp.ini
attr iterationvars "$0=4, $1=0.8"
attr iterationvarsf 4,0.8-
attr measurement "$0=4, $1=0.8"
attr network slottedNetwork
attr processid 220663
attr repetition 0
attr replication #0
attr resultdir results
attr runnumber 11
attr seedset 11
param **.numTransmitters 4
param **.numChannels 1
param **.bufferSize 5
param **.sendProbability 0.8
param **.expMean 4s
param **.timeSlotSize 5s
param **.thresh 20s
param **.deterministicInterarrivalTime true
param **.numTransmitters 1
param **.numChannels 1
param **.bufferSize 5
param **.sendProbability 1
param **.expMean 5s
param **.timeSlotSize 5s
param **.thresh 20s
param **.deterministicInterarrivalTime false

vector 0 slottedNetwork.transmitters[0] numPacketCreated:vector ETV
attr source numPacketCreatedSignal
vector 1 slottedNetwork.transmitters[1] numPacketCreated:vector ETV
attr source numPacketCreatedSignal
vector 2 slottedNetwork.transmitters[2] numPacketCreated:vector ETV
attr source numPacketCreatedSignal
vector 3 slottedNetwork.transmitters[3] numPacketCreated:vector ETV
attr source numPacketCreatedSignal
vector 4 slottedNetwork.ch throughput:vector ETV
attr source throughputSignal
vector 5 slottedNetwork.transmitters[0] numPacketDiscarded:vector ETV
attr source numPacketDiscardedSignal
vector 6 slottedNetwork.transmitters[1] numPacketDiscarded:vector ETV
attr source numPacketDiscardedSignal
vector 7 slottedNetwork.transmitters[2] numPacketDiscarded:vector ETV
attr source numPacketDiscardedSignal
vector 8 slottedNetwork.transmitters[3] numPacketDiscarded:vector ETV
attr source numPacketDiscardedSignal
vector 9 slottedNetwork.receivers[3] numPacketReceived:vector ETV
attr source numPacketReceivedSignal
vector 10 slottedNetwork.receivers[3] responseTime:vector ETV
attr source responseTimeSignal
vector 11 slottedNetwork.receivers[3] threshold:vector ETV
attr source thresholdSignal
vector 12 slottedNetwork.receivers[1] numPacketReceived:vector ETV
attr source numPacketReceivedSignal
vector 13 slottedNetwork.receivers[1] responseTime:vector ETV
attr source responseTimeSignal
vector 14 slottedNetwork.receivers[1] threshold:vector ETV
attr source thresholdSignal
vector 15 slottedNetwork.receivers[2] numPacketReceived:vector ETV
attr source numPacketReceivedSignal
vector 16 slottedNetwork.receivers[2] responseTime:vector ETV
attr source responseTimeSignal
vector 17 slottedNetwork.receivers[2] threshold:vector ETV
attr source thresholdSignal
vector 18 slottedNetwork.receivers[0] numPacketReceived:vector ETV
attr source numPacketReceivedSignal
vector 19 slottedNetwork.receivers[0] responseTime:vector ETV
attr source responseTimeSignal
vector 20 slottedNetwork.receivers[0] threshold:vector ETV
attr source thresholdSignal
0	1	4	1
0	14	8	1
0	23	12	1
0	32	16	1
0	37	20	1
0	47	24	1
0	57	28	1
0	69	32	1
0	78	36	1
0	83	40	1
0	91	44	1
0	101	48	1
0	113	52	1
0	122	56	1
0	127	60	1
0	136	64	1
0	148	68	1
0	157	72	1
0	167	76	1
0	172	80	1
0	181	84	1
0	191	88	1
0	202	92	1
0	214	96	1
0	219	100	1
0	227	104	1
0	236	108	1
0	245	112	1
0	254	116	1
0	259	120	1
0	268	124	1
0	279	128	1
0	291	132	1
0	301	136	1
0	306	140	1
0	316	144	1
0	327	148	1
0	338	152	1
0	350	156	1
0	355	160	1
0	363	164	1
0	373	168	1
0	383	172	1
0	392	176	1
0	397	180	1
0	406	184	1
0	418	188	1
0	427	192	1
0	436	196	1
0	441	200	1
0	449	204	1
0	458	208	1
0	469	212	1
0	478	216	1
0	483	220	1
0	491	224	1
0	500	228	1
0	510	232	1
0	522	236	1
0	527	240	1
0	535	244	1
0	544	248	1
0	554	252	1
0	565	256	1
0	570	260	1
0	580	264	1
0	592	268	1
0	601	272	1
0	610	276	1
0	615	280	1
0	623	284	1
0	633	288	1
0	644	292	1
0	656	296	1
0	661	300	1
0	669	304	1
0	678	308	1
0	687	312	1
0	696	316	1
0	701	320	1
0	711	324	1
0	720	328	1
0	729	332	1
0	738	336	1
0	743	340	1
0	752	344	1
0	764	348	1
0	773	352	1
0	783	356	1
0	788	360	1
0	799	364	1
0	808	368	1
0	817	372	1
0	827	376	1
0	832	380	1
0	842	384	1
0	852	388	1
0	864	392	1
0	873	396	1
0	878	400	1
0	886	404	1
0	895	408	1
0	904	412	1
0	914	416	1
0	919	420	1
0	930	424	1
0	940	428	1
0	950	432	1
0	959	436	1
0	964	440	1
0	973	444	1
0	985	448	1
0	995	452	1
0	1006	456	1
0	1011	460	1
0	1021	464	1
0	1032	468	1
0	1043	472	1
0	1053	476	1
0	1058	480	1
0	1068	484	1
0	1077	488	1
0	1086	492	1
0	1096	496	1
0	1101	500	1
0	1111	504	1
0	1122	508	1
0	1134	512	1
0	1144	516	1
0	1149	520	1
0	1159	524	1
0	1170	528	1
0	1182	532	1
0	1192	536	1
0	1197	540	1
0	1207	544	1
0	1219	548	1
0	1228	552	1
0	1238	556	1
0	1243	560	1
0	1253	564	1
0	1264	568	1
0	1276	572	1
0	1285	576	1
0	1290	580	1
0	1300	584	1
0	1309	588	1
0	1318	592	1
0	1327	596	1
0	1332	600	1
0	1342	604	1
0	1352	608	1
0	1364	612	1
0	1373	616	1
0	1378	620	1
0	1386	624	1
0	1396	628	1
0	1407	632	1
0	1419	636	1
0	1424	640	1
0	1433	644	1
0	1444	648	1
0	1456	652	1
0	1466	656	1
0	1471	660	1
0	1482	664	1
0	1492	668	1
0	1503	672	1
0	1514	676	1
0	1519	680	1
0	1530	684	1
0	1539	688	1
0	1548	692	1
0	1557	696	1
0	1562	700	1
0	1571	704	1
0	1581	708	1
0	1592	712	1
0	1601	716	1
0	1606	720	1
0	1614	724	1
0	1624	728	1
0	1635	732	1
0	1645	736	1
0	1650	740	1
0	1659	744	1
0	1671	748	1
0	1681	752	1
0	1692	756	1
0	1697	760	1
0	1707	764	1
0	1718	768	1
0	1729	772	1
0	1741	776	1
0	1746	780	1
0	1755	784	1
0	1765	788	1
0	1776	792	1
0	1786	796	1
0	1791	800	1
0	1801	804	1
0	1812	808	1
0	1825	812	1
0	1834	816	1
0	1839	820	1
0	1847	824	1
0	1856	828	1
0	1865	832	1
0	1875	836	1
0	1880	840	1
0	1891	844	1
0	1901	848	1
0	1912	852	1
0	1923	856	1
0	1928	860	1
0	1939	864	1
0	1948	868	1
0	1958	872	1
0	1969	876	1
0	1974	880	1
0	1984	884	1
0	1994	888	1
0	2007	892	1
0	2016	896	1
0	2021	900	1
0	2029	904	1
0	2038	908	1
0	2048	912	1
0	2060	916	1
0	2065	920	1
0	2073	924	1
0	2082	928	1
0	2091	932	1
0	2100	936	1
0	2105	940	1
0	2114	944	1
0	2126	948	1
0	2135	952	1
0	2144	956	1
0	2149	960	1
0	2157	964	1
0	2168	968	1
0	2178	972	1
0	2189	976	1
0	2194	980	1
0	2204	984	1
0	2215	988	1
0	2226	992	1
0	2236	996	1
0	2241	1000	1
0	2250	1004	1
0	2261	1008	1
0	2273	1012	1
0	2282	1016	1
0	2287	1020	1
0	2295	1024	1
0	2305	1028	1
0	2316	1032	1
0	2328	1036	1
0	2333	1040	1
0	2342	1044	1
0	2353	1048	1
0	2364	1052	1
0	2375	1056	1
0	2380	1060	1
0	2390	1064	1
0	2403	1068	1
0	2412	1072	1
0	2421	1076	1
0	2426	1080	1
0	2435	1084	1
0	2447	1088	1
0	2456	1092	1
0	2466	1096	1
0	2471	1100	1
0	2481	1104	1
0	2494	1108	1
0	2503	1112	1
0	2512	1116	1
0	2517	1120	1
0	2526	1124	1
0	2538	1128	1
0	2547	1132	1
0	2556	1136	1
0	2561	1140	1
0	2570	1144	1
0	2580	1148	1
0	2591	1152	1
0	2601	1156	1
0	2606	1160	1
0	2616	1164	1
0	2627	1168	1
0	2640	1172	1
0	2649	1176	1
0	2654	1180	1
0	2663	1184	1
0	2674	1188	1
0	2685	1192	1
0	2698	1196	1
0	2703	1200	1
0	2712	1204	1
0	2723	1208	1
0	2734	1212	1
0	2746	1216	1
0	2751	1220	1
0	2759	1224	1
0	2768	1228	1
0	2778	1232	1
0	2790	1236	1
0	2795	1240	1
0	2803	1244	1
0	2814	1248	1
0	2823	1252	1
0	2832	1256	1
0	2837	1260	1
0	2845	1264	1
0	2856	1268	1
0	2865	1272	1
0	2874	1276	1
0	2879	1280	1
0	2887	1284	1
0	2897	1288	1
0	2908	1292	1
0	2920	1296	1
0	2925	1300	1
0	2933	1304	1
0	2942	1308	1
0	2952	1312	1
0	2963	1316	1
0	2968	1320	1
0	2979	1324	1
0	2989	1328	1
0	3000	1332	1
0	3013	1336	1
0	3018	1340	1
0	3026	1344	1
0	3035	1348	1
0	3046	1352	1
0	3055	1356	1
0	3060	1360	1
0	3069	1364	1
0	3080	1368	1
0	3091	1372	1
0	3101	1376	1
0	3106	1380	1
0	3115	1384	1
0	3127	1388	1
0	3136	1392	1
0	3145	1396	1
0	3150	1400	1
0	3159	1404	1
0	3170	1408	1
0	3181	1412	1
0	3192	1416	1
0	3197	1420	1
0	3207	1424	1
0	3218	1428	1
0	3230	1432	1
0	3239	1436	1
0	3244	1440	1
0	3252	1444	1
0	3261	1448	1
0	3270	1452	1
0	3279	1456	1
0	3284	1460	1
0	3294	1464	1
0	3303	1468	1
0	3312	1472	1
0	3321	1476	1
0	3326	1480	1
0	3334	1484	1
0	3343	1488	1
0	3352	1492	1
0	3362	1496	1
0	3367	1500	1
0	3377	1504	1
0	3389	1508	1
0	3398	1512	1
0	3407	1516	1
0	3412	1520	1
0	3420	1524	1
0	3430	1528	1
0	3441	1532	1
0	3452	1536	1
0	3457	1540	1
0	3467	1544	1
0	3478	1548	1
0	3489	1552	1
0	3499	1556	1
0	3504	1560	1
0	3513	1564	1
0	3524	1568	1
0	3536	1572	1
0	3546	1576	1
0	3551	1580	1
0	3561	1584	1
0	3573	1588	1
0	3582	1592	1
0	3591	1596	1
0	3596	1600	1
0	3604	1604	1
0	3613	1608	1
0	3622	1612	1
0	3631	1616	1
0	3636	1620	1
0	3645	1624	1
0	3657	1628	1
0	3666	1632	1
0	3676	1636	1
0	3681	1640	1
0	3691	1644	1
0	3702	1648	1
0	3712	1652	1
0	3723	1656	1
0	3728	1660	1
0	3737	1664	1
0	3747	1668	1
0	3756	1672	1
0	3767	1676	1
0	3772	1680	1
0	3780	1684	1
0	3789	1688	1
0	3798	1692	1
0	3808	1696	1
0	3813	1700	1
0	3824	1704	1
0	3833	1708	1
0	3842	1712	1
0	3852	1716	1
0	3857	1720	1
0	3867	1724	1
0	3877	1728	1
0	3889	1732	1
0	3898	1736	1
0	3903	1740	1
0	3911	1744	1
0	3920	1748	1
0	3931	1752	1
0	3940	1756	1
0	3945	1760	1
0	3953	1764	1
0	3962	1768	1
0	3971	1772	1
0	3980	1776	1
0	3985	1780	1
0	3994	1784	1
0	4005	1788	1
0	4016	1792	1
0	4027	1796	1
0	4032	1800	1
0	4043	1804	1
0	4052	1808	1
0	4061	1812	1
0	4071	1816	1
0	4076	1820	1
0	4086	1824	1
0	4096	1828	1
0	4108	1832	1
0	4117	1836	1
0	4122	1840	1
0	4130	1844	1
0	4139	1848	1
0	4149	1852	1
0	4160	1856	1
0	4165	1860	1
0	4174	1864	1
0	4184	1868	1
0	4195	1872	1
0	4207	1876	1
0	4212	1880	1
0	4221	1884	1
0	4231	1888	1
0	4241	1892	1
0	4253	1896	1
0	4258	1900	1
0	4266	1904	1
0	4275	1908	1
0	4285	1912	1
0	4298	1916	1
0	4303	1920	1
0	4311	1924	1
0	4320	1928	1
0	4330	1932	1
0	4342	1936	1
0	4347	1940	1
0	4355	1944	1
0	4364	1948	1
0	4374	1952	1
0	4386	1956	1
0	4391	1960	1
0	4399	1964	1
0	4409	1968	1
0	4421	1972	1
0	4430	1976	1
0	4435	1980	1
0	4443	1984	1
0	4453	1988	1
0	4465	1992	1
0	4474	1996	1
0	4479	2000	1
0	4487	2004	1
0	4497	2008	1
0	4508	2012	1
0	4520	2016	1
0	4525	2020	1
0	4533	2024	1
0	4542	2028	1
0	4552	2032	1
0	4563	2036	1
0	4568	2040	1
0	4578	2044	1
0	4590	2048	1
0	4599	2052	1
0	4608	2056	1
0	4613	2060	1
0	4621	2064	1
0	4631	2068	1
0	4644	2072	1
0	4653	2076	1
0	4658	2080	1
0	4666	2084	1
0	4676	2088	1
0	4687	2092	1
0	4698	2096	1
0	4703	2100	1
0	4713	2104	1
0	4724	2108	1
0	4736	2112	1
0	4745	2116	1
0	4750	2120	1
0	4759	2124	1
0	4770	2128	1
0	4781	2132	1
0	4792	2136	1
0	4797	2140	1
0	4808	2144	1
0	4818	2148	1
0	4828	2152	1
0	4839	2156	1
0	4844	2160	1
0	4852	2164	1
0	4861	2168	1
0	4870	2172	1
0	4879	2176	1
0	4884	2180	1
0	4892	2184	1
0	4901	2188	1
0	4912	2192	1
0	4921	2196	1
0	4926	2200	1
0	4934	2204	1
0	4943	2208	1
0	4954	2212	1
0	4963	2216	1
0	4968	2220	1
0	4976	2224	1
0	4986	2228	1
0	4997	2232	1
0	5009	2236	1
0	5014	2240	1
0	5022	2244	1
0	5031	2248	1
0	5040	2252	1
0	5050	2256	1
0	5055	2260	1
0	5065	2264	1
0	5075	2268	1
0	5086	2272	1
0	5095	2276	1
0	5100	2280	1
0	5108	2284	1
0	5117	2288	1
0	5127	2292	1
0	5137	2296	1
0	5142	2300	1
0	5151	2304	1
0	5162	2308	1
0	5174	2312	1
0	5183	2316	1
0	5188	2320	1
0	5196	2324	1
0	5206	2328	1
0	5217	2332	1
0	5229	2336	1
0	5234	2340	1
0	5242	2344	1
0	5251	2348	1
0	5260	2352	1
0	5270	2356	1
0	5275	2360	1
0	5285	2364	1
0	5297	2368	1
0	5306	2372	1
0	5315	2376	1
0	5320	2380	1
0	5328	2384	1
0	5339	2388	1
0	5348	2392	1
0	5358	2396	1
0	5363	2400	1
0	5374	2404	1
0	5384	2408	1
0	5395	2412	1
0	5406	2416	1
0	5411	2420	1
0	5421	2424	1
0	5432	2428	1
0	5444	2432	1
0	5453	2436	1
0	5458	2440	1
0	5466	2444	1
0	5476	2448	1
0	5488	2452	1
0	5497	2456	1
0	5502	2460	1
0	5510	2464	1
0	5520	2468	1
0	5531	2472	1
0	5542	2476	1
0	5547	2480	1
0	5558	2484	1
0	5567	2488	1
0	5576	2492	1
0	5585	2496	1
0	5590	2500	1
0	5600	2504	1
0	5610	2508	1
0	5621	2512	1
0	5632	2516	1
0	5637	2520	1
0	5646	2524	1
0	5656	2528	1
0	5666	2532	1
0	5676	2536	1
0	5681	2540	1
0	5690	2544	1
0	5700	2548	1
0	5711	2552	1
0	5722	2556	1
0	5727	2560	1
0	5737	2564	1
0	5748	2568	1
0	5761	2572	1
0	5770	2576	1
0	5775	2580	1
0	5783	2584	1
0	5792	2588	1
0	5801	2592	1
0	5811	2596	1
0	5816	2600	1
0	5827	2604	1
0	5836	2608	1
0	5845	2612	1
0	5854	2616	1
0	5859	2620	1
0	5867	2624	1
0	5877	2628	1
0	5888	2632	1
0	5900	2636	1
0	5905	2640	1
0	5913	2644	1
0	5922	2648	1
0	5932	2652	1
0	5943	2656	1
0	5948	2660	1
0	5957	2664	1
0	5967	2668	1
0	5978	2672	1
0	5989	2676	1
0	5994	2680	1
0	6004	2684	1
0	6015	2688	1
0	6027	2692	1
0	6037	2696	1
0	6042	2700	1
0	6051	2704	1
0	6061	2708	1
0	6071	2712	1
0	6082	2716	1
0	6087	2720	1
0	6095	2724	1
0	6104	2728	1
0	6113	2732	1
0	6122	2736	1
0	6127	2740	1
0	6136	2744	1
0	6146	2748	1
0	6156	2752	1
0	6166	2756	1
0	6171	2760	1
0	6181	2764	1
0	6190	2768	1
0	6199	2772	1
0	6209	2776	1
0	6214	2780	1
0	6224	2784	1
0	6236	2788	1
0	6245	2792	1
0	6254	2796	1
0	6259	2800	1
0	6267	2804	1
0	6276	2808	1
0	6286	2812	1
0	6298	2816	1
0	6303	2820	1
0	6311	2824	1
0	6320	2828	1
0	6329	2832	1
0	6339	2836	1
0	6344	2840	1
0	6354	2844	1
0	6366	2848	1
0	6375	2852	1
0	6384	2856	1
0	6389	2860	1
0	6398	2864	1
0	6409	2868	1
0	6419	2872	1
0	6430	2876	1
0	6435	2880	1
0	6443	2884	1
0	6452	2888	1
0	6461	2892	1
0	6470	2896	1
0	6475	2900	1
0	6484	2904	1
0	6495	2908	1
0	6506	2912	1
0	6517	2916	1
0	6522	2920	1
0	6531	2924	1
0	6542	2928	1
0	6551	2932	1
0	6560	2936	1
0	6565	2940	1
0	6574	2944	1
0	6585	2948	1
0	6595	2952	1
0	6605	2956	1
0	6610	2960	1
0	6620	2964	1
0	6631	2968	1
0	6642	2972	1
0	6653	2976	1
0	6658	2980	1
0	6668	2984	1
0	6680	2988	1
0	6689	2992	1
0	6699	2996	1
0	6704	3000	1
0	6713	3004	1
0	6723	3008	1
0	6734	3012	1
0	6746	3016	1
0	6751	3020	1
0	6759	3024	1
0	6768	3028	1
0	6777	3032	1
0	6786	3036	1
0	6791	3040	1
0	6799	3044	1
0	6809	3048	1
0	6820	3052	1
0	6832	3056	1
0	6837	3060	1
0	6845	3064	1
0	6854	3068	1
0	6863	3072	1
0	6872	3076	1
0	6877	3080	1
0	6886	3084	1
0	6897	3088	1
0	6908	3092	1
0	6919	3096	1
0	6924	3100	1
0	6934	3104	1
0	6944	3108	1
0	6954	3112	1
0	6966	3116	1
0	6971	3120	1
0	6979	3124	1
0	6989	3128	1
0	7000	3132	1
0	7012	3136	1
0	7017	3140	1
0	7025	3144	1
0	7034	3148	1
0	7043	3152	1
0	7052	3156	1
0	7057	3160	1
0	7065	3164	1
0	7075	3168	1
0	7086	3172	1
0	7097	3176	1
0	7102	3180	1
0	7113	3184	1
0	7122	3188	1
0	7131	3192	1
0	7140	3196	1
0	7145	3200	1
0	7153	3204	1
0	7163	3208	1
0	7174	3212	1
0	7185	3216	1
0	7190	3220	1
0	7199	3224	1
0	7209	3228	1
0	7220	3232	1
0	7233	3236	1
0	7238	3240	1
0	7246	3244	1
0	7255	3248	1
0	7264	3252	1
0	7273	3256	1
0	7278	3260	1
0	7286	3264	1
0	7296	3268	1
0	7307	3272	1
0	7318	3276	1
0	7323	3280	1
0	7332	3284	1
0	7341	3288	1
0	7351	3292	1
0	7362	3296	1
0	7367	3300	1
0	7377	3304	1
0	7387	3308	1
0	7397	3312	1
0	7408	3316	1
0	7413	3320	1
0	7422	3324	1
0	7432	3328	1
0	7443	3332	1
0	7454	3336	1
0	7459	3340	1
0	7469	3344	1
0	7480	3348	1
0	7491	3352	1
0	7502	3356	1
0	7507	3360	1
0	7517	3364	1
0	7527	3368	1
0	7536	3372	1
0	7546	3376	1
0	7551	3380	1
0	7561	3384	1
0	7573	3388	1
0	7582	3392	1
0	7591	3396	1
0	7596	3400	1
0	7605	3404	1
0	7616	3408	1
0	7626	3412	1
0	7636	3416	1
0	7641	3420	1
0	7652	3424	1
0	7661	3428	1
0	7670	3432	1
0	7679	3436	1
0	7684	3440	1
0	7693	3444	1
0	7704	3448	1
0	7715	3452	1
0	7727	3456	1
0	7732	3460	1
0	7740	3464	1
0	7749	3468	1
0	7758	3472	1
0	7767	3476	1
0	7772	3480	1
0	7781	3484	1
0	7792	3488	1
0	7802	3492	1
0	7812	3496	1
0	7817	3500	1
0	7828	3504	1
0	7837	3508	1
0	7846	3512	1
0	7855	3516	1
0	7860	3520	1
0	7868	3524	1
0	7877	3528	1
0	7887	3532	1
0	7897	3536	1
0	7902	3540	1
0	7910	3544	1
0	7920	3548	1
0	7931	3552	1
0	7942	3556	1
0	7947	3560	1
0	7957	3564	1
0	7968	3568	1
0	7979	3572	1
0	7990	3576	1
0	7995	3580	1
0	8005	3584	1
0	8016	3588	1
0	8027	3592	1
0	8039	3596	1
0	8044	3600	1
1	2	4	1
1	15	8	1
1	24	12	1
1	33	16	1
1	38	20	1
1	48	24	1
1	58	28	1
1	70	32	1
1	79	36	1
1	84	40	1
1	92	44	1
1	102	48	1
1	114	52	1
1	123	56	1
1	128	60	1
1	137	64	1
1	149	68	1
1	158	72	1
1	168	76	1
1	173	80	1
1	182	84	1
1	192	88	1
1	203	92	1
1	215	96	1
1	220	100	1
1	228	104	1
1	237	108	1
1	246	112	1
1	255	116	1
1	260	120	1
1	269	124	1
1	280	128	1
1	292	132	1
1	302	136	1
1	307	140	1
1	317	144	1
1	328	148	1
1	339	152	1
1	351	156	1
1	356	160	1
1	364	164	1
1	374	168	1
1	384	172	1
1	393	176	1
1	398	180	1
1	407	184	1
1	419	188	1
1	428	192	1
1	437	196	1
1	442	200	1
1	450	204	1
1	459	208	1
1	470	212	1
1	479	216	1
1	484	220	1
1	492	224	1
1	501	228	1
1	511	232	1
1	523	236	1
1	528	240	1
1	536	244	1
1	545	248	1
1	555	252	1
1	566	256	1
1	571	260	1
1	581	264	1
1	593	268	1
1	602	272	1
1	611	276	1
1	616	280	1
1	624	284	1
1	634	288	1
1	645	292	1
1	657	296	1
1	662	300	1
1	670	304	1
1	679	308	1
1	688	312	1
1	697	316	1
1	702	320	1
1	712	324	1
1	721	328	1
1	730	332	1
1	739	336	1
1	744	340	1
1	753	344	1
1	765	348	1
1	774	352	1
1	784	356	1
1	789	360	1
1	800	364	1
1	809	368	1
1	818	372	1
1	828	376	1
1	833	380	1
1	843	384	1
1	853	388	1
1	865	392	1
1	874	396	1
1	879	400	1
1	887	404	1
1	896	408	1
1	905	412	1
1	915	416	1
1	920	420	1
1	931	424	1
1	941	428	1
1	951	432	1
1	960	436	1
1	965	440	1
1	974	444	1
1	986	448	1
1	996	452	1
1	1007	456	1
1	1012	460	1
1	1022	464	1
1	1033	468	1
1	1044	472	1
1	1054	476	1
1	1059	480	1
1	1069	484	1
1	1078	488	1
1	1087	492	1
1	1097	496	1
1	1102	500	1
1	1112	504	1
1	1123	508	1
1	1135	512	1
1	1145	516	1
1	1150	520	1
1	1160	524	1
1	1171	528	1
1	1183	532	1
1	1193	536	1
1	1198	540	1
1	1208	544	1
1	1220	548	1
1	1229	552	1
1	1239	556	1
1	1244	560	1
1	1254	564	1
1	1265	568	1
1	1277	572	1
1	1286	576	1
1	1291	580	1
1	1301	584	1
1	1310	588	1
1	1319	592	1
1	1328	596	1
1	1333	600	1
1	1343	604	1
1	1353	608	1
1	1365	612	1
1	1374	616	1
1	1379	620	1
1	1387	624	1
1	1397	628	1
1	1408	632	1
1	1420	636	1
1	1425	640	1
1	1434	644	1
1	1445	648	1
1	1457	652	1
1	1467	656	1
1	1472	660	1
1	1483	664	1
1	1493	668	1
1	1504	672	1
1	1515	676	1
1	1520	680	1
1	1531	684	1
1	1540	688	1
1	1549	692	1
1	1558	696	1
1	1563	700	1
1	1572	704	1
1	1582	708	1
1	1593	712	1
1	1602	716	1
1	1607	720	1
1	1615	724	1
1	1625	728	1
1	1636	732	1
1	1646	736	1
1	1651	740	1
1	1660	744	1
1	1672	748	1
1	1682	752	1
1	1693	756	1
1	1698	760	1
1	1708	764	1
1	1719	768	1
1	1730	772	1
1	1742	776	1
1	1747	780	1
1	1756	784	1
1	1766	788	1
1	1777	792	1
1	1787	796	1
1	1792	800	1
1	1802	804	1
1	1813	808	1
1	1826	812	1
1	1835	816	1
1	1840	820	1
1	1848	824	1
1	1857	828	1
1	1866	832	1
1	1876	836	1
1	1881	840	1
1	1892	844	1
1	1902	848	1
1	1913	852	1
1	1924	856	1
1	1929	860	1
1	1940	864	1
1	1949	868	1
1	1959	872	1
1	1970	876	1
1	1975	880	1
1	1985	884	1
1	1995	888	1
1	2008	892	1
1	2017	896	1
1	2022	900	1
1	2030	904	1
1	2039	908	1
1	2049	912	1
1	2061	916	1
1	2066	920	1
1	2074	924	1
1	2083	928	1
1	2092	932	1
1	2101	936	1
1	2106	940	1
1	2115	944	1
1	2127	948	1
1	2136	952	1
1	2145	956	1
1	2150	960	1
1	2158	964	1
1	2169	968	1
1	2179	972	1
1	2190	976	1
1	2195	980	1
1	2205	984	1
1	2216	988	1
1	2227	992	1
1	2237	996	1
1	2242	1000	1
1	2251	1004	1
1	2262	1008	1
1	2274	1012	1
1	2283	1016	1
1	2288	1020	1
1	2296	1024	1
1	2306	1028	1
1	2317	1032	1
1	2329	1036	1
1	2334	1040	1
1	2343	1044	1
1	2354	1048	1
1	2365	1052	1
1	2376	1056	1
1	2381	1060	1
1	2391	1064	1
1	2404	1068	1
1	2413	1072	1
1	2422	1076	1
1	2427	1080	1
1	2436	1084	1
1	2448	1088	1
1	2457	1092	1
1	2467	1096	1
1	2472	1100	1
1	2482	1104	1
1	2495	1108	1
1	2504	1112	1
1	2513	1116	1
1	2518	1120	1
1	2527	1124	1
1	2539	1128	1
1	2548	1132	1
1	2557	1136	1
1	2562	1140	1
1	2571	1144	1
1	2581	1148	1
1	2592	1152	1
1	2602	1156	1
1	2607	1160	1
1	2617	1164	1
1	2628	1168	1
1	2641	1172	1
1	2650	1176	1
1	2655	1180	1
1	2664	1184	1
1	2675	1188	1
1	2686	1192	1
1	2699	1196	1
1	2704	1200	1
1	2713	1204	1
1	2724	1208	1
1	2735	1212	1
1	2747	1216	1
1	2752	1220	1
1	2760	1224	1
1	2769	1228	1
1	2779	1232	1
1	2791	1236	1
1	2796	1240	1
1	2804	1244	1
1	2815	1248	1
1	2824	1252	1
1	2833	1256	1
1	2838	1260	1
1	2846	1264	1
1	2857	1268	1
1	2866	1272	1
1	2875	1276	1
1	2880	1280	1
1	2888	1284	1
1	2898	1288	1
1	2909	1292	1
1	2921	1296	1
1	2926	1300	1
1	2934	1304	1
1	2943	1308	1
1	2953	1312	1
1	2964	1316	1
1	2969	1320	1
1	2980	1324	1
1	2990	1328	1
1	3001	1332	1
1	3014	1336	1
1	3019	1340	1
1	3027	1344	1
1	3036	1348	1
1	3047	1352	1
1	3056	1356	1
1	3061	1360	1
1	3070	1364	1
1	3081	1368	1
1	3092	1372	1
1	3102	1376	1
1	3107	1380	1
1	3116	1384	1
1	3128	1388	1
1	3137	1392	1
1	3146	1396	1
1	3151	1400	1
1	3160	1404	1
1	3171	1408	1
1	3182	1412	1
1	3193	1416	1
1	3198	1420	1
1	3208	1424	1
1	3219	1428	1
1	3231	1432	1
1	3240	1436	1
1	3245	1440	1
1	3253	1444	1
1	3262	1448	1
1	3271	1452	1
1	3280	1456	1
1	3285	1460	1
1	3295	1464	1
1	3304	1468	1
1	3313	1472	1
1	3322	1476	1
1	3327	1480	1
1	3335	1484	1
1	3344	1488	1
1	3353	1492	1
1	3363	1496	1
1	3368	1500	1
1	3378	1504	1
1	3390	1508	1
1	3399	1512	1
1	3408	1516	1
1	3413	1520	1
1	3421	1524	1
1	3431	1528	1
1	3442	1532	1
1	3453	1536	1
1	3458	1540	1
1	3468	1544	1
1	3479	1548	1
1	3490	1552	1
1	3500	1556	1
1	3505	1560	1
1	3514	1564	1
1	3525	1568	1
1	3537	1572	1
1	3547	1576	1
1	3552	1580	1
1	3562	1584	1
1	3574	1588	1
1	3583	1592	1
1	3592	1596	1
1	3597	1600	1
1	3605	1604	1
1	3614	1608	1
1	3623	1612	1
1	3632	1616	1
1	3637	1620	1
1	3646	1624	1
1	3658	1628	1
1	3667	1632	1
1	3677	1636	1
1	3682	1640	1
1	3692	1644	1
1	3703	1648	1
1	3713	1652	1
1	3724	1656	1
1	3729	1660	1
1	3738	1664	1
1	3748	1668	1
1	3757	1672	1
1	3768	1676	1
1	3773	1680	1
1	3781	1684	1
1	3790	1688	1
1	3799	1692	1
1	3809	1696	1
1	3814	1700	1
1	3825	1704	1
1	3834	1708	1
1	3843	1712	1
1	3853	1716	1
1	3858	1720	1
1	3868	1724	1
1	3878	1728	1
1	3890	1732	1
1	3899	1736	1
1	3904	1740	1
1	3912	1744	1
1	3921	1748	1
1	3932	1752	1
1	3941	1756	1
1	3946	1760	1
1	3954	1764	1
1	3963	1768	1
1	3972	1772	1
1	3981	1776	1
1	3986	1780	1
1	3995	1784	1
1	4006	1788	1
1	4017	1792	1
1	4028	1796	1
1	4033	1800	1
1	4044	1804	1
1	4053	1808	1
1	4062	1812	1
1	4072	1816	1
1	4077	1820	1
1	4087	1824	1
1	4097	1828	1
1	4109	1832	1
1	4118	1836	1
1	4123	1840	1
1	4131	1844	1
1	4140	1848	1
1	4150	1852	1
1	4161	1856	1
1	4166	1860	1
1	4175	1864	1
1	4185	1868	1
1	4196	1872	1
1	4208	1876	1
1	4213	1880	1
1	4222	1884	1
1	4232	1888	1
1	4242	1892	1
1	4254	1896	1
1	4259	1900	1
1	4267	1904	1
1	4276	1908	1
1	4286	1912	1
1	4299	1916	1
1	4304	1920	1
1	4312	1924	1
1	4321	1928	1
1	4331	1932	1
1	4343	1936	1
1	4348	1940	1
1	4356	1944	1
1	4365	1948	1
1	4375	1952	1
1	4387	1956	1
1	4392	1960	1
1	4400	1964	1
1	4410	1968	1
1	4422	1972	1
1	4431	1976	1
1	4436	1980	1
1	4444	1984	1
1	4454	1988	1
1	4466	1992	1
1	4475	1996	1
1	4480	2000	1
1	4488	2004	1
1	4498	2008	1
1	4509	2012	1
1	4521	2016	1
1	4526	2020	1
1	4534	2024	1
1	4543	2028	1
1	4553	2032	1
1	4564	2036	1
1	4569	2040	1
1	4579	2044	1
1	4591	2048	1
1	4600	2052	1
1	4609	2056	1
1	4614	2060	1
1	4622	2064	1
1	4632	2068	1
1	4645	2072	1
1	4654	2076	1
1	4659	2080	1
1	4667	2084	1
1	4677	2088	1
1	4688	2092	1
1	4699	2096	1
1	4704	2100	1
1	4714	2104	1
1	4725	2108	1
1	4737	2112	1
1	4746	2116	1
1	4751	2120	1
1	4760	2124	1
1	4771	2128	1
1	4782	2132	1
1	4793	2136	1
1	4798	2140	1
1	4809	2144	1
1	4819	2148	1
1	4829	2152	1
1	4840	2156	1
1	4845	2160	1
1	4853	2164	1
1	4862	2168	1
1	4871	2172	1
1	4880	2176	1
1	4885	2180	1
1	4893	2184	1
1	4902	2188	1
1	4913	2192	1
1	4922	2196	1
1	4927	2200	1
1	4935	2204	1
1	4944	2208	1
1	4955	2212	1
1	4964	2216	1
1	4969	2220	1
1	4977	2224	1
1	4987	2228	1
1	4998	2232	1
1	5010	2236	1
1	5015	2240	1
1	5023	2244	1
1	5032	2248	1
1	5041	2252	1
1	5051	2256	1
1	5056	2260	1
1	5066	2264	1
1	5076	2268	1
1	5087	2272	1
1	5096	2276	1
1	5101	2280	1
1	5109	2284	1
1	5118	2288	1
1	5128	2292	1
1	5138	2296	1
1	5143	2300	1
1	5152	2304	1
1	5163	2308	1
1	5175	2312	1
1	5184	2316	1
1	5189	2320	1
1	5197	2324	1
1	5207	2328	1
1	5218	2332	1
1	5230	2336	1
1	5235	2340	1
1	5243	2344	1
1	5252	2348	1
1	5261	2352	1
1	5271	2356	1
1	5276	2360	1
1	5286	2364	1
1	5298	2368	1
1	5307	2372	1
1	5316	2376	1
1	5321	2380	1
1	5329	2384	1
1	5340	2388	1
1	5349	2392	1
1	5359	2396	1
1	5364	2400	1
1	5375	2404	1
1	5385	2408	1
1	5396	2412	1
1	5407	2416	1
1	5412	2420	1
1	5422	2424	1
1	5433	2428	1
1	5445	2432	1
1	5454	2436	1
1	5459	2440	1
1	5467	2444	1
1	5477	2448	1
1	5489	2452	1
1	5498	2456	1
1	5503	2460	1
1	5511	2464	1
1	5521	2468	1
1	5532	2472	1
1	5543	2476	1
1	5548	2480	1
1	5559	2484	1
1	5568	2488	1
1	5577	2492	1
1	5586	2496	1
1	5591	2500	1
1	5601	2504	1
1	5611	2508	1
1	5622	2512	1
1	5633	2516	1
1	5638	2520	1
1	5647	2524	1
1	5657	2528	1
1	5667	2532	1
1	5677	2536	1
1	5682	2540	1
1	5691	2544	1
1	5701	2548	1
1	5712	2552	1
1	5723	2556	1
1	5728	2560	1
1	5738	2564	1
1	5749	2568	1
1	5762	2572	1
1	5771	2576	1
1	5776	2580	1
1	5784	2584	1
1	5793	2588	1
1	5802	2592	1
1	5812	2596	1
1	5817	2600	1
1	5828	2604	1
1	5837	2608	1
1	5846	2612	1
1	5855	2616	1
1	5860	2620	1
1	5868	2624	1
1	5878	2628	1
1	5889	2632	1
1	5901	2636	1
1	5906	2640	1
1	5914	2644	1
1	5923	2648	1
1	5933	2652	1
1	5944	2656	1
1	5949	2660	1
1	5958	2664	1
1	5968	2668	1
1	5979	2672	1
1	5990	2676	1
1	5995	2680	1
1	6005	2684	1
1	6016	2688	1
1	6028	2692	1
1	6038	2696	1
1	6043	2700	1
1	6052	2704	1
1	6062	2708	1
1	6072	2712	1
1	6083	2716	1
1	6088	2720	1
1	6096	2724	1
1	6105	2728	1
1	6114	2732	1
1	6123	2736	1
1	6128	2740	1
1	6137	2744	1
1	6147	2748	1
1	6157	2752	1
1	6167	2756	1
1	6172	2760	1
1	6182	2764	1
1	6191	2768	1
1	6200	2772	1
1	6210	2776	1
1	6215	2780	1
1	6225	2784	1
1	6237	2788	1
1	6246	2792	1
1	6255	2796	1
1	6260	2800	1
1	6268	2804	1
1	6277	2808	1
1	6287	2812	1
1	6299	2816	1
1	6304	2820	1
1	6312	2824	1
1	6321	2828	1
1	6330	2832	1
1	6340	2836	1
1	6345	2840	1
1	6355	2844	1
1	6367	2848	1
1	6376	2852	1
1	6385	2856	1
1	6390	2860	1
1	6399	2864	1
1	6410	2868	1
1	6420	2872	1
1	6431	2876	1
1	6436	2880	1
1	6444	2884	1
1	6453	2888	1
1	6462	2892	1
1	6471	2896	1
1	6476	2900	1
1	6485	2904	1
1	6496	2908	1
1	6507	2912	1
1	6518	2916	1
1	6523	2920	1
1	6532	2924	1
1	6543	2928	1
1	6552	2932	1
1	6561	2936	1
1	6566	2940	1
1	6575	2944	1
1	6586	2948	1
1	6596	2952	1
1	6606	2956	1
1	6611	2960	1
1	6621	2964	1
1	6632	2968	1
1	6643	2972	1
1	6654	2976	1
1	6659	2980	1
1	6669	2984	1
1	6681	2988	1
1	6690	2992	1
1	6700	2996	1
1	6705	3000	1
1	6714	3004	1
1	6724	3008	1
1	6735	3012	1
1	6747	3016	1
1	6752	3020	1
1	6760	3024	1
1	6769	3028	1
1	6778	3032	1
1	6787	3036	1
1	6792	3040	1
1	6800	3044	1
1	6810	3048	1
1	6821	3052	1
1	6833	3056	1
1	6838	3060	1
1	6846	3064	1
1	6855	3068	1
1	6864	3072	1
1	6873	3076	1
1	6878	3080	1
1	6887	3084	1
1	6898	3088	1
1	6909	3092	1
1	6920	3096	1
1	6925	3100	1
1	6935	3104	1
1	6945	3108	1
1	6955	3112	1
1	6967	3116	1
1	6972	3120	1
1	6980	3124	1
1	6990	3128	1
1	7001	3132	1
1	7013	3136	1
1	7018	3140	1
1	7026	3144	1
1	7035	3148	1
1	7044	3152	1
1	7053	3156	1
1	7058	3160	1
1	7066	3164	1
1	7076	3168	1
1	7087	3172	1
1	7098	3176	1
1	7103	3180	1
1	7114	3184	1
1	7123	3188	1
1	7132	3192	1
1	7141	3196	1
1	7146	3200	1
1	7154	3204	1
1	7164	3208	1
1	7175	3212	1
1	7186	3216	1
1	7191	3220	1
1	7200	3224	1
1	7210	3228	1
1	7221	3232	1
1	7234	3236	1
1	7239	3240	1
1	7247	3244	1
1	7256	3248	1
1	7265	3252	1
1	7274	3256	1
1	7279	3260	1
1	7287	3264	1
1	7297	3268	1
1	7308	3272	1
1	7319	3276	1
1	7324	3280	1
1	7333	3284	1
1	7342	3288	1
1	7352	3292	1
1	7363	3296	1
1	7368	3300	1
1	7378	3304	1
1	7388	3308	1
1	7398	3312	1
1	7409	3316	1
1	7414	3320	1
1	7423	3324	1
1	7433	3328	1
1	7444	3332	1
1	7455	3336	1
1	7460	3340	1
1	7470	3344	1
1	7481	3348	1
1	7492	3352	1
1	7503	3356	1
1	7508	3360	1
1	7518	3364	1
1	7528	3368	1
1	7537	3372	1
1	7547	3376	1
1	7552	3380	1
1	7562	3384	1
1	7574	3388	1
1	7583	3392	1
1	7592	3396	1
1	7597	3400	1
1	7606	3404	1
1	7617	3408	1
1	7627	3412	1
1	7637	3416	1
1	7642	3420	1
1	7653	3424	1
1	7662	3428	1
1	7671	3432	1
1	7680	3436	1
1	7685	3440	1
1	7694	3444	1
1	7705	3448	1
1	7716	3452	1
1	7728	3456	1
1	7733	3460	1
1	7741	3464	1
1	7750	3468	1
1	7759	3472	1
1	7768	3476	1
1	7773	3480	1
1	7782	3484	1
1	7793	3488	1
1	7803	3492	1
1	7813	3496	1
1	7818	3500	1
1	7829	3504	1
1	7838	3508	1
1	7847	3512	1
1	7856	3516	1
1	7861	3520	1
1	7869	3524	1
1	7878	3528	1
1	7888	3532	1
1	7898	3536	1
1	7903	3540	1
1	7911	3544	1
1	7921	3548	1
1	7932	3552	1
1	7943	3556	1
1	7948	3560	1
1	7958	3564	1
1	7969	3568	1
1	7980	3572	1
1	7991	3576	1
1	7996	3580	1
1	8006	3584	1
1	8017	3588	1
1	8028	3592	1
1	8040	3596	1
1	8045	3600	1
2	3	4	1
2	16	8	1
2	25	12	1
2	34	16	1
2	39	20	1
2	49	24	1
2	59	28	1
2	71	32	1
2	80	36	1
2	85	40	1
2	93	44	1
2	103	48	1
2	115	52	1
2	124	56	1
2	129	60	1
2	138	64	1
2	150	68	1
2	159	72	1
2	169	76	1
2	174	80	1
2	183	84	1
2	193	88	1
2	204	92	1
2	216	96	1
2	221	100	1
2	229	104	1
2	238	108	1
2	247	112	1
2	256	116	1
2	261	120	1
2	270	124	1
2	281	128	1
2	293	132	1
2	303	136	1
2	308	140	1
2	318	144	1
2	329	148	1
2	340	152	1
2	352	156	1
2	357	160	1
2	365	164	1
2	375	168	1
2	385	172	1
2	394	176	1
2	399	180	1
2	408	184	1
2	420	188	1
2	429	192	1
2	438	196	1
2	443	200	1
2	451	204	1
2	460	208	1
2	471	212	1
2	480	216	1
2	485	220	1
2	493	224	1
2	502	228	1
2	512	232	1
2	524	236	1
2	529	240	1
2	537	244	1
2	546	248	1
2	556	252	1
2	567	256	1
2	572	260	1
2	582	264	1
2	594	268	1
2	603	272	1
2	612	276	1
2	617	280	1
2	625	284	1
2	635	288	1
2	646	292	1
2	658	296	1
2	663	300	1
2	671	304	1
2	680	308	1
2	689	312	1
2	698	316	1
2	703	320	1
2	713	324	1
2	722	328	1
2	731	332	1
2	740	336	1
2	745	340	1
2	754	344	1
2	766	348	1
2	775	352	1
2	785	356	1
2	790	360	1
2	801	364	1
2	810	368	1
2	819	372	1
2	829	376	1
2	834	380	1
2	844	384	1
2	854	388	1
2	866	392	1
2	875	396	1
2	880	400	1
2	888	404	1
2	897	408	1
2	906	412	1
2	916	416	1
2	921	420	1
2	932	424	1
2	942	428	1
2	952	432	1
2	961	436	1
2	966	440	1
2	975	444	1
2	987	448	1
2	997	452	1
2	1008	456	1
2	1013	460	1
2	1023	464	1
2	1034	468	1
2	1045	472	1
2	1055	476	1
2	1060	480	1
2	1070	484	1
2	1079	488	1
2	1088	492	1
2	1098	496	1
2	1103	500	1
2	1113	504	1
2	1124	508	1
2	1136	512	1
2	1146	516	1
2	1151	520	1
2	1161	524	1
2	1172	528	1
2	1184	532	1
2	1194	536	1
2	1199	540	1
2	1209	544	1
2	1221	548	1
2	1230	552	1
2	1240	556	1
2	1245	560	1
2	1255	564	1
2	1266	568	1
2	1278	572	1
2	1287	576	1
2	1292	580	1
2	1302	584	1
2	1311	588	1
2	1320	592	1
2	1329	596	1
2	1334	600	1
2	1344	604	1
2	1354	608	1
2	1366	612	1
2	1375	616	1
2	1380	620	1
2	1388	624	1
2	1398	628	1
2	1409	632	1
2	1421	636	1
2	1426	640	1
2	1435	644	1
2	1446	648	1
2	1458	652	1
2	1468	656	1
2	1473	660	1
2	1484	664	1
2	1494	668	1
2	1505	672	1
2	1516	676	1
2	1521	680	1
2	1532	684	1
2	1541	688	1
2	1550	692	1
2	1559	696	1
2	1564	700	1
2	1573	704	1
2	1583	708	1
2	1594	712	1
2	1603	716	1
2	1608	720	1
2	1616	724	1
2	1626	728	1
2	1637	732	1
2	1647	736	1
2	1652	740	1
2	1661	744	1
2	1673	748	1
2	1683	752	1
2	1694	756	1
2	1699	760	1
2	1709	764	1
2	1720	768	1
2	1731	772	1
2	1743	776	1
2	1748	780	1
2	1757	784	1
2	1767	788	1
2	1778	792	1
2	1788	796	1
2	1793	800	1
2	1803	804	1
2	1814	808	1
2	1827	812	1
2	1836	816	1
2	1841	820	1
2	1849	824	1
2	1858	828	1
2	1867	832	1
2	1877	836	1
2	1882	840	1
2	1893	844	1
2	1903	848	1
2	1914	852	1
2	1925	856	1
2	1930	860	1
2	1941	864	1
2	1950	868	1
2	1960	872	1
2	1971	876	1
2	1976	880	1
2	1986	884	1
2	1996	888	1
2	2009	892	1
2	2018	896	1
2	2023	900	1
2	2031	904	1
2	2040	908	1
2	2050	912	1
2	2062	916	1
2	2067	920	1
2	2075	924	1
2	2084	928	1
2	2093	932	1
2	2102	936	1
2	2107	940	1
2	2116	944	1
2	2128	948	1
2	2137	952	1
2	2146	956	1
2	2151	960	1
2	2159	964	1
2	2170	968	1
2	2180	972	1
2	2191	976	1
2	2196	980	1
2	2206	984	1
2	2217	988	1
2	2228	992	1
2	2238	996	1
2	2243	1000	1
2	2252	1004	1
2	2263	1008	1
2	2275	1012	1
2	2284	1016	1
2	2289	1020	1
2	2297	1024	1
2	2307	1028	1
2	2318	1032	1
2	2330	1036	1
2	2335	1040	1
2	2344	1044	1
2	2355	1048	1
2	2366	1052	1
2	2377	1056	1
2	2382	1060	1
2	2392	1064	1
2	2405	1068	1
2	2414	1072	1
2	2423	1076	1
2	2428	1080	1
2	2437	1084	1
2	2449	1088	1
2	2458	1092	1
2	2468	1096	1
2	2473	1100	1
2	2483	1104	1
2	2496	1108	1
2	2505	1112	1
2	2514	1116	1
2	2519	1120	1
2	2528	1124	1
2	2540	1128	1
2	2549	1132	1
2	2558	1136	1
2	2563	1140	1
2	2572	1144	1
2	2582	1148	1
2	2593	1152	1
2	2603	1156	1
2	2608	1160	1
2	2618	1164	1
2	2629	1168	1
2	2642	1172	1
2	2651	1176	1
2	2656	1180	1
2	2665	1184	1
2	2676	1188	1
2	2687	1192	1
2	2700	1196	1
2	2705	1200	1
2	2714	1204	1
2	2725	1208	1
2	2736	1212	1
2	2748	1216	1
2	2753	1220	1
2	2761	1224	1
2	2770	1228	1
2	2780	1232	1
2	2792	1236	1
2	2797	1240	1
2	2805	1244	1
2	2816	1248	1
2	2825	1252	1
2	2834	1256	1
2	2839	1260	1
2	2847	1264	1
2	2858	1268	1
2	2867	1272	1
2	2876	1276	1
2	2881	1280	1
2	2889	1284	1
2	2899	1288	1
2	2910	1292	1
2	2922	1296	1
2	2927	1300	1
2	2935	1304	1
2	2944	1308	1
2	2954	1312	1
2	2965	1316	1
2	2970	1320	1
2	2981	1324	1
2	2991	1328	1
2	3002	1332	1
2	3015	1336	1
2	3020	1340	1
2	3028	1344	1
2	3037	1348	1
2	3048	1352	1
2	3057	1356	1
2	3062	1360	1
2	3071	1364	1
2	3082	1368	1
2	3093	1372	1
2	3103	1376	1
2	3108	1380	1
2	3117	1384	1
2	3129	1388	1
2	3138	1392	1
2	3147	1396	1
2	3152	1400	1
2	3161	1404	1
2	3172	1408	1
2	3183	1412	1
2	3194	1416	1
2	3199	1420	1
2	3209	1424	1
2	3220	1428	1
2	3232	1432	1
2	3241	1436	1
2	3246	1440	1
2	3254	1444	1
2	3263	1448	1
2	3272	1452	1
2	3281	1456	1
2	3286	1460	1
2	3296	1464	1
2	3305	1468	1
2	3314	1472	1
2	3323	1476	1
2	3328	1480	1
2	3336	1484	1
2	3345	1488	1
2	3354	1492	1
2	3364	1496	1
2	3369	1500	1
2	3379	1504	1
2	3391	1508	1
2	3400	1512	1
2	3409	1516	1
2	3414	1520	1
2	3422	1524	1
2	3432	1528	1
2	3443	1532	1
2	3454	1536	1
2	3459	1540	1
2	3469	1544	1
2	3480	1548	1
2	3491	1552	1
2	3501	1556	1
2	3506	1560	1
2	3515	1564	1
2	3526	1568	1
2	3538	1572	1
2	3548	1576	1
2	3553	1580	1
2	3563	1584	1
2	3575	1588	1
2	3584	1592	1
2	3593	1596	1
2	3598	1600	1
2	3606	1604	1
2	3615	1608	1
2	3624	1612	1
2	3633	1616	1
2	3638	1620	1
2	3647	1624	1
2	3659	1628	1
2	3668	1632	1
2	3678	1636	1
2	3683	1640	1
2	3693	1644	1
2	3704	1648	1
2	3714	1652	1
2	3725	1656	1
2	3730	1660	1
2	3739	1664	1
2	3749	1668	1
2	3758	1672	1
2	3769	1676	1
2	3774	1680	1
2	3782	1684	1
2	3791	1688	1
2	3800	1692	1
2	3810	1696	1
2	3815	1700	1
2	3826	1704	1
2	3835	1708	1
2	3844	1712	1
2	3854	1716	1
2	3859	1720	1
2	3869	1724	1
2	3879	1728	1
2	3891	1732	1
2	3900	1736	1
2	3905	1740	1
2	3913	1744	1
2	3922	1748	1
2	3933	1752	1
2	3942	1756	1
2	3947	1760	1
2	3955	1764	1
2	3964	1768	1
2	3973	1772	1
2	3982	1776	1
2	3987	1780	1
2	3996	1784	1
2	4007	1788	1
2	4018	1792	1
2	4029	1796	1
2	4034	1800	1
2	4045	1804	1
2	4054	1808	1
2	4063	1812	1
2	4073	1816	1
2	4078	1820	1
2	4088	1824	1
2	4098	1828	1
2	4110	1832	1
2	4119	1836	1
2	4124	1840	1
2	4132	1844	1
2	4141	1848	1
2	4151	1852	1
2	4162	1856	1
2	4167	1860	1
2	4176	1864	1
2	4186	1868	1
2	4197	1872	1
2	4209	1876	1
2	4214	1880	1
2	4223	1884	1
2	4233	1888	1
2	4243	1892	1
2	4255	1896	1
2	4260	1900	1
2	4268	1904	1
2	4277	1908	1
2	4287	1912	1
2	4300	1916	1
2	4305	1920	1
2	4313	1924	1
2	4322	1928	1
2	4332	1932	1
2	4344	1936	1
2	4349	1940	1
2	4357	1944	1
2	4366	1948	1
2	4376	1952	1
2	4388	1956	1
2	4393	1960	1
2	4401	1964	1
2	4411	1968	1
2	4423	1972	1
2	4432	1976	1
2	4437	1980	1
2	4445	1984	1
2	4455	1988	1
2	4467	1992	1
2	4476	1996	1
2	4481	2000	1
2	4489	2004	1
2	4499	2008	1
2	4510	2012	1
2	4522	2016	1
2	4527	2020	1
2	4535	2024	1
2	4544	2028	1
2	4554	2032	1
2	4565	2036	1
2	4570	2040	1
2	4580	2044	1
2	4592	2048	1
2	4601	2052	1
2	4610	2056	1
2	4615	2060	1
2	4623	2064	1
2	4633	2068	1
2	4646	2072	1
2	4655	2076	1
2	4660	2080	1
2	4668	2084	1
2	4678	2088	1
2	4689	2092	1
2	4700	2096	1
2	4705	2100	1
2	4715	2104	1
2	4726	2108	1
2	4738	2112	1
2	4747	2116	1
2	4752	2120	1
2	4761	2124	1
2	4772	2128	1
2	4783	2132	1
2	4794	2136	1
2	4799	2140	1
2	4810	2144	1
2	4820	2148	1
2	4830	2152	1
2	4841	2156	1
2	4846	2160	1
2	4854	2164	1
2	4863	2168	1
2	4872	2172	1
2	4881	2176	1
2	4886	2180	1
2	4894	2184	1
2	4903	2188	1
2	4914	2192	1
2	4923	2196	1
2	4928	2200	1
2	4936	2204	1
2	4945	2208	1
2	4956	2212	1
2	4965	2216	1
2	4970	2220	1
2	4978	2224	1
2	4988	2228	1
2	4999	2232	1
2	5011	2236	1
2	5016	2240	1
2	5024	2244	1
2	5033	2248	1
2	5042	2252	1
2	5052	2256	1
2	5057	2260	1
2	5067	2264	1
2	5077	2268	1
2	5088	2272	1
2	5097	2276	1
2	5102	2280	1
2	5110	2284	1
2	5119	2288	1
2	5129	2292	1
2	5139	2296	1
2	5144	2300	1
2	5153	2304	1
2	5164	2308	1
2	5176	2312	1
2	5185	2316	1
2	5190	2320	1
2	5198	2324	1
2	5208	2328	1
2	5219	2332	1
2	5231	2336	1
2	5236	2340	1
2	5244	2344	1
2	5253	2348	1
2	5262	2352	1
2	5272	2356	1
2	5277	2360	1
2	5287	2364	1
2	5299	2368	1
2	5308	2372	1
2	5317	2376	1
2	5322	2380	1
2	5330	2384	1
2	5341	2388	1
2	5350	2392	1
2	5360	2396	1
2	5365	2400	1
2	5376	2404	1
2	5386	2408	1
2	5397	2412	1
2	5408	2416	1
2	5413	2420	1
2	5423	2424	1
2	5434	2428	1
2	5446	2432	1
2	5455	2436	1
2	5460	2440	1
2	5468	2444	1
2	5478	2448	1
2	5490	2452	1
2	5499	2456	1
2	5504	2460	1
2	5512	2464	1
2	5522	2468	1
2	5533	2472	1
2	5544	2476	1
2	5549	2480	1
2	5560	2484	1
2	5569	2488	1
2	5578	2492	1
2	5587	2496	1
2	5592	2500	1
2	5602	2504	1
2	5612	2508	1
2	5623	2512	1
2	5634	2516	1
2	5639	2520	1
2	5648	2524	1
2	5658	2528	1
2	5668	2532	1
2	5678	2536	1
2	5683	2540	1
2	5692	2544	1
2	5702	2548	1
2	5713	2552	1
2	5724	2556	1
2	5729	2560	1
2	5739	2564	1
2	5750	2568	1
2	5763	2572	1
2	5772	2576	1
2	5777	2580	1
2	5785	2584	1
2	5794	2588	1
2	5803	2592	1
2	5813	2596	1
2	5818	2600	1
2	5829	2604	1
2	5838	2608	1
2	5847	2612	1
2	5856	2616	1
2	5861	2620	1
2	5869	2624	1
2	5879	2628	1
2	5890	2632	1
2	5902	2636	1
2	5907	2640	1
2	5915	2644	1
2	5924	2648	1
2	5934	2652	1
2	5945	2656	1
2	5950	2660	1
2	5959	2664	1
2	5969	2668	1
2	5980	2672	1
2	5991	2676	1
2	5996	2680	1
2	6006	2684	1
2	6017	2688	1
2	6029	2692	1
2	6039	2696	1
2	6044	2700	1
2	6053	2704	1
2	6063	2708	1
2	6073	2712	1
2	6084	2716	1
2	6089	2720	1
2	6097	2724	1
2	6106	2728	1
2	6115	2732	1
2	6124	2736	1
2	6129	2740	1
2	6138	2744	1
2	6148	2748	1
2	6158	2752	1
2	6168	2756	1
2	6173	2760	1
2	6183	2764	1
2	6192	2768	1
2	6201	2772	1
2	6211	2776	1
2	6216	2780	1
2	6226	2784	1
2	6238	2788	1
2	6247	2792	1
2	6256	2796	1
2	6261	2800	1
2	6269	2804	1
2	6278	2808	1
2	6288	2812	1
2	6300	2816	1
2	6305	2820	1
2	6313	2824	1
2	6322	2828	1
2	6331	2832	1
2	6341	2836	1
2	6346	2840	1
2	6356	2844	1
2	6368	2848	1
2	6377	2852	1
2	6386	2856	1
2	6391	2860	1
2	6400	2864	1
2	6411	2868	1
2	6421	2872	1
2	6432	2876	1
2	6437	2880	1
2	6445	2884	1
2	6454	2888	1
2	6463	2892	1
2	6472	2896	1
2	6477	2900	1
2	6486	2904	1
2	6497	2908	1
2	6508	2912	1
2	6519	2916	1
2	6524	2920	1
2	6533	2924	1
2	6544	2928	1
2	6553	2932	1
2	6562	2936	1
2	6567	2940	1
2	6576	2944	1
2	6587	2948	1
2	6597	2952	1
2	6607	2956	1
2	6612	2960	1
2	6622	2964	1
2	6633	2968	1
2	6644	2972	1
2	6655	2976	1
2	6660	2980	1
2	6670	2984	1
2	6682	2988	1
2	6691	2992	1
2	6701	2996	1
2	6706	3000	1
2	6715	3004	1
2	6725	3008	1
2	6736	3012	1
2	6748	3016	1
2	6753	3020	1
2	6761	3024	1
2	6770	3028	1
2	6779	3032	1
2	6788	3036	1
2	6793	3040	1
2	6801	3044	1
2	6811	3048	1
2	6822	3052	1
2	6834	3056	1
2	6839	3060	1
2	6847	3064	1
2	6856	3068	1
2	6865	3072	1
2	6874	3076	1
2	6879	3080	1
2	6888	3084	1
2	6899	3088	1
2	6910	3092	1
2	6921	3096	1
2	6926	3100	1
2	6936	3104	1
2	6946	3108	1
2	6956	3112	1
2	6968	3116	1
2	6973	3120	1
2	6981	3124	1
2	6991	3128	1
2	7002	3132	1
2	7014	3136	1
2	7019	3140	1
2	7027	3144	1
2	7036	3148	1
2	7045	3152	1
2	7054	3156	1
2	7059	3160	1
2	7067	3164	1
2	7077	3168	1
2	7088	3172	1
2	7099	3176	1
2	7104	3180	1
2	7115	3184	1
2	7124	3188	1
2	7133	3192	1
2	7142	3196	1
2	7147	3200	1
2	7155	3204	1
2	7165	3208	1
2	7176	3212	1
2	7187	3216	1
2	7192	3220	1
2	7201	3224	1
2	7211	3228	1
2	7222	3232	1
2	7235	3236	1
2	7240	3240	1
2	7248	3244	1
2	7257	3248	1
2	7266	3252	1
2	7275	3256	1
2	7280	3260	1
2	7288	3264	1
2	7298	3268	1
2	7309	3272	1
2	7320	3276	1
2	7325	3280	1
2	7334	3284	1
2	7343	3288	1
2	7353	3292	1
2	7364	3296	1
2	7369	3300	1
2	7379	3304	1
2	7389	3308	1
2	7399	3312	1
2	7410	3316	1
2	7415	3320	1
2	7424	3324	1
2	7434	3328	1
2	7445	3332	1
2	7456	3336	1
2	7461	3340	1
2	7471	3344	1
2	7482	3348	1
2	7493	3352	1
2	7504	3356	1
2	7509	3360	1
2	7519	3364	1
2	7529	3368	1
2	7538	3372	1
2	7548	3376	1
2	7553	3380	1
2	7563	3384	1
2	7575	3388	1
2	7584	3392	1
2	7593	3396	1
2	7598	3400	1
2	7607	3404	1
2	7618	3408	1
2	7628	3412	1
2	7638	3416	1
2	7643	3420	1
2	7654	3424	1
2	7663	3428	1
2	7672	3432	1
2	7681	3436	1
2	7686	3440	1
2	7695	3444	1
2	7706	3448	1
2	7717	3452	1
2	7729	3456	1
2	7734	3460	1
2	7742	3464	1
2	7751	3468	1
2	7760	3472	1
2	7769	3476	1
2	7774	3480	1
2	7783	3484	1
2	7794	3488	1
2	7804	3492	1
2	7814	3496	1
2	7819	3500	1
2	7830	3504	1
2	7839	3508	1
2	7848	3512	1
2	7857	3516	1
2	7862	3520	1
2	7870	3524	1
2	7879	3528	1
2	7889	3532	1
2	7899	3536	1
2	7904	3540	1
2	7912	3544	1
2	7922	3548	1
2	7933	3552	1
2	7944	3556	1
2	7949	3560	1
2	7959	3564	1
2	7970	3568	1
2	7981	3572	1
2	7992	3576	1
2	7997	3580	1
2	8007	3584	1
2	8018	3588	1
2	8029	3592	1
2	8041	3596	1
2	8046	3600	1
3	4	4	1
3	17	8	1
3	26	12	1
3	35	16	1
3	40	20	1
3	50	24	1
3	60	28	1
3	72	32	1
3	81	36	1
3	86	40	1
3	94	44	1
3	104	48	1
3	116	52	1
3	125	56	1
3	130	60	1
3	139	64	1
3	151	68	1
3	160	72	1
3	170	76	1
3	175	80	1
3	184	84	1
3	194	88	1
3	205	92	1
3	217	96	1
3	222	100	1
3	230	104	1
3	239	108	1
3	248	112	1
3	257	116	1
3	262	120	1
3	271	124	1
3	282	128	1
3	294	132	1
3	304	136	1
3	309	140	1
3	319	144	1
3	330	148	1
3	341	152	1
3	353	156	1
3	358	160	1
3	366	164	1
3	376	168	1
3	386	172	1
3	395	176	1
3	400	180	1
3	409	184	1
3	421	188	1
3	430	192	1
3	439	196	1
3	444	200	1
3	452	204	1
3	461	208	1
3	472	212	1
3	481	216	1
3	486	220	1
3	494	224	1
3	503	228	1
3	513	232	1
3	525	236	1
3	530	240	1
3	538	244	1
3	547	248	1
3	557	252	1
3	568	256	1
3	573	260	1
3	583	264	1
3	595	268	1
3	604	272	1
3	613	276	1
3	618	280	1
3	626	284	1
3	636	288	1
3	647	292	1
3	659	296	1
3	664	300	1
3	672	304	1
3	681	308	1
3	690	312	1
3	699	316	1
3	704	320	1
3	714	324	1
3	723	328	1
3	732	332	1
3	741	336	1
3	746	340	1
3	755	344	1
3	767	348	1
3	776	352	1
3	786	356	1
3	791	360	1
3	802	364	1
3	811	368	1
3	820	372	1
3	830	376	1
3	835	380	1
3	845	384	1
3	855	388	1
3	867	392	1
3	876	396	1
3	881	400	1
3	889	404	1
3	898	408	1
3	907	412	1
3	917	416	1
3	922	420	1
3	933	424	1
3	943	428	1
3	953	432	1
3	962	436	1
3	967	440	1
3	976	444	1
3	988	448	1
3	998	452	1
3	1009	456	1
3	1014	460	1
3	1024	464	1
3	1035	468	1
3	1046	472	1
3	1056	476	1
3	1061	480	1
3	1071	484	1
3	1080	488	1
3	1089	492	1
3	1099	496	1
3	1104	500	1
3	1114	504	1
3	1125	508	1
3	1137	512	1
3	1147	516	1
3	1152	520	1
3	1162	524	1
3	1173	528	1
3	1185	532	1
3	1195	536	1
3	1200	540	1
3	1210	544	1
3	1222	548	1
3	1231	552	1
3	1241	556	1
3	1246	560	1
3	1256	564	1
3	1267	568	1
3	1279	572	1
3	1288	576	1
3	1293	580	1
3	1303	584	1
3	1312	588	1
3	1321	592	1
3	1330	596	1
3	1335	600	1
3	1345	604	1
3	1355	608	1
3	1367	612	1
3	1376	616	1
3	1381	620	1
3	1389	624	1
3	1399	628	1
3	1410	632	1
3	1422	636	1
3	1427	640	1
3	1436	644	1
3	1447	648	1
3	1459	652	1
3	1469	656	1
3	1474	660	1
3	1485	664	1
3	1495	668	1
3	1506	672	1
3	1517	676	1
3	1522	680	1
3	1533	684	1
3	1542	688	1
3	1551	692	1
3	1560	696	1
3	1565	700	1
3	1574	704	1
3	1584	708	1
3	1595	712	1
3	1604	716	1
3	1609	720	1
3	1617	724	1
3	1627	728	1
3	1638	732	1
3	1648	736	1
3	1653	740	1
3	1662	744	1
3	1674	748	1
3	1684	752	1
3	1695	756	1
3	1700	760	1
3	1710	764	1
3	1721	768	1
3	1732	772	1
3	1744	776	1
3	1749	780	1
3	1758	784	1
3	1768	788	1
3	1779	792	1
3	1789	796	1
3	1794	800	1
3	1804	804	1
3	1815	808	1
3	1828	812	1
3	1837	816	1
3	1842	820	1
3	1850	824	1
3	1859	828	1
3	1868	832	1
3	1878	836	1
3	1883	840	1
3	1894	844	1
3	1904	848	1
3	1915	852	1
3	1926	856	1
3	1931	860	1
3	1942	864	1
3	1951	868	1
3	1961	872	1
3	1972	876	1
3	1977	880	1
3	1987	884	1
3	1997	888	1
3	2010	892	1
3	2019	896	1
3	2024	900	1
3	2032	904	1
3	2041	908	1
3	2051	912	1
3	2063	916	1
3	2068	920	1
3	2076	924	1
3	2085	928	1
3	2094	932	1
3	2103	936	1
3	2108	940	1
3	2117	944	1
3	2129	948	1
3	2138	952	1
3	2147	956	1
3	2152	960	1
3	2160	964	1
3	2171	968	1
3	2181	972	1
3	2192	976	1
3	2197	980	1
3	2207	984	1
3	2218	988	1
3	2229	992	1
3	2239	996	1
3	2244	1000	1
3	2253	1004	1
3	2264	1008	1
3	2276	1012	1
3	2285	1016	1
3	2290	1020	1
3	2298	1024	1
3	2308	1028	1
3	2319	1032	1
3	2331	1036	1
3	2336	1040	1
3	2345	1044	1
3	2356	1048	1
3	2367	1052	1
3	2378	1056	1
3	2383	1060	1
3	2393	1064	1
3	2406	1068	1
3	2415	1072	1
3	2424	1076	1
3	2429	1080	1
3	2438	1084	1
3	2450	1088	1
3	2459	1092	1
3	2469	1096	1
3	2474	1100	1
3	2484	1104	1
3	2497	1108	1
3	2506	1112	1
3	2515	1116	1
3	2520	1120	1
3	2529	1124	1
3	2541	1128	1
3	2550	1132	1
3	2559	1136	1
3	2564	1140	1
3	2573	1144	1
3	2583	1148	1
3	2594	1152	1
3	2604	1156	1
3	2609	1160	1
3	2619	1164	1
3	2630	1168	1
3	2643	1172	1
3	2652	1176	1
3	2657	1180	1
3	2666	1184	1
3	2677	1188	1
3	2688	1192	1
3	2701	1196	1
3	2706	1200	1
3	2715	1204	1
3	2726	1208	1
3	2737	1212	1
3	2749	1216	1
3	2754	1220	1
3	2762	1224	1
3	2771	1228	1
3	2781	1232	1
3	2793	1236	1
3	2798	1240	1
3	2806	1244	1
3	2817	1248	1
3	2826	1252	1
3	2835	1256	1
3	2840	1260	1
3	2848	1264	1
3	2859	1268	1
3	2868	1272	1
3	2877	1276	1
3	2882	1280	1
3	2890	1284	1
3	2900	1288	1
3	2911	1292	1
3	2923	1296	1
3	2928	1300	1
3	2936	1304	1
3	2945	1308	1
3	2955	1312	1
3	2966	1316	1
3	2971	1320	1
3	2982	1324	1
3	2992	1328	1
3	3003	1332	1
3	3016	1336	1
3	3021	1340	1
3	3029	1344	1
3	3038	1348	1
3	3049	1352	1
3	3058	1356	1
3	3063	1360	1
3	3072	1364	1
3	3083	1368	1
3	3094	1372	1
3	3104	1376	1
3	3109	1380	1
3	3118	1384	1
3	3130	1388	1
3	3139	1392	1
3	3148	1396	1
3	3153	1400	1
3	3162	1404	1
3	3173	1408	1
3	3184	1412	1
3	3195	1416	1
3	3200	1420	1
3	3210	1424	1
3	3221	1428	1
3	3233	1432	1
3	3242	1436	1
3	3247	1440	1
3	3255	1444	1
3	3264	1448	1
3	3273	1452	1
3	3282	1456	1
3	3287	1460	1
3	3297	1464	1
3	3306	1468	1
3	3315	1472	1
3	3324	1476	1
3	3329	1480	1
3	3337	1484	1
3	3346	1488	1
3	3355	1492	1
3	3365	1496	1
3	3370	1500	1
3	3380	1504	1
3	3392	1508	1
3	3401	1512	1
3	3410	1516	1
3	3415	1520	1
3	3423	1524	1
3	3433	1528	1
3	3444	1532	1
3	3455	1536	1
3	3460	1540	1
3	3470	1544	1
3	3481	1548	1
3	3492	1552	1
3	3502	1556	1
3	3507	1560	1
3	3516	1564	1
3	3527	1568	1
3	3539	1572	1
3	3549	1576	1
3	3554	1580	1
3	3564	1584	1
3	3576	1588	1
3	3585	1592	1
3	3594	1596	1
3	3599	1600	1
3	3607	1604	1
3	3616	1608	1
3	3625	1612	1
3	3634	1616	1
3	3639	1620	1
3	3648	1624	1
3	3660	1628	1
3	3669	1632	1
3	3679	1636	1
3	3684	1640	1
3	3694	1644	1
3	3705	1648	1
3	3715	1652	1
3	3726	1656	1
3	3731	1660	1
3	3740	1664	1
3	3750	1668	1
3	3759	1672	1
3	3770	1676	1
3	3775	1680	1
3	3783	1684	1
3	3792	1688	1
3	3801	1692	1
3	3811	1696	1
3	3816	1700	1
3	3827	1704	1
3	3836	1708	1
3	3845	1712	1
3	3855	1716	1
3	3860	1720	1
3	3870	1724	1
3	3880	1728	1
3	3892	1732	1
3	3901	1736	1
3	3906	1740	1
3	3914	1744	1
3	3923	1748	1
3	3934	1752	1
3	3943	1756	1
3	3948	1760	1
3	3956	1764	1
3	3965	1768	1
3	3974	1772	1
3	3983	1776	1
3	3988	1780	1
3	3997	1784	1
3	4008	1788	1
3	4019	1792	1
3	4030	1796	1
3	4035	1800	1
3	4046	1804	1
3	4055	1808	1
3	4064	1812	1
3	4074	1816	1
3	4079	1820	1
3	4089	1824	1
3	4099	1828	1
3	4111	1832	1
3	4120	1836	1
3	4125	1840	1
3	4133	1844	1
3	4142	1848	1
3	4152	1852	1
3	4163	1856	1
3	4168	1860	1
3	4177	1864	1
3	4187	1868	1
3	4198	1872	1
3	4210	1876	1
3	4215	1880	1
3	4224	1884	1
3	4234	1888	1
3	4244	1892	1
3	4256	1896	1
3	4261	1900	1
3	4269	1904	1
3	4278	1908	1
3	4288	1912	1
3	4301	1916	1
3	4306	1920	1
3	4314	1924	1
3	4323	1928	1
3	4333	1932	1
3	4345	1936	1
3	4350	1940	1
3	4358	1944	1
3	4367	1948	1
3	4377	1952	1
3	4389	1956	1
3	4394	1960	1
3	4402	1964	1
3	4412	1968	1
3	4424	1972	1
3	4433	1976	1
3	4438	1980	1
3	4446	1984	1
3	4456	1988	1
3	4468	1992	1
3	4477	1996	1
3	4482	2000	1
3	4490	2004	1
3	4500	2008	1
3	4511	2012	1
3	4523	2016	1
3	4528	2020	1
3	4536	2024	1
3	4545	2028	1
3	4555	2032	1
3	4566	2036	1
3	4571	2040	1
3	4581	2044	1
3	4593	2048	1
3	4602	2052	1
3	4611	2056	1
3	4616	2060	1
3	4624	2064	1
3	4634	2068	1
3	4647	2072	1
3	4656	2076	1
3	4661	2080	1
3	4669	2084	1
3	4679	2088	1
3	4690	2092	1
3	4701	2096	1
3	4706	2100	1
3	4716	2104	1
3	4727	2108	1
3	4739	2112	1
3	4748	2116	1
3	4753	2120	1
3	4762	2124	1
3	4773	2128	1
3	4784	2132	1
3	4795	2136	1
3	4800	2140	1
3	4811	2144	1
3	4821	2148	1
3	4831	2152	1
3	4842	2156	1
3	4847	2160	1
3	4855	2164	1
3	4864	2168	1
3	4873	2172	1
3	4882	2176	1
3	4887	2180	1
3	4895	2184	1
3	4904	2188	1
3	4915	2192	1
3	4924	2196	1
3	4929	2200	1
3	4937	2204	1
3	4946	2208	1
3	4957	2212	1
3	4966	2216	1
3	4971	2220	1
3	4979	2224	1
3	4989	2228	1
3	5000	2232	1
3	5012	2236	1
3	5017	2240	1
3	5025	2244	1
3	5034	2248	1
3	5043	2252	1
3	5053	2256	1
3	5058	2260	1
3	5068	2264	1
3	5078	2268	1
3	5089	2272	1
3	5098	2276	1
3	5103	2280	1
3	5111	2284	1
3	5120	2288	1
3	5130	2292	1
3	5140	2296	1
3	5145	2300	1
3	5154	2304	1
3	5165	2308	1
3	5177	2312	1
3	5186	2316	1
3	5191	2320	1
3	5199	2324	1
3	5209	2328	1
3	5220	2332	1
3	5232	2336	1
3	5237	2340	1
3	5245	2344	1
3	5254	2348	1
3	5263	2352	1
3	5273	2356	1
3	5278	2360	1
3	5288	2364	1
3	5300	2368	1
3	5309	2372	1
3	5318	2376	1
3	5323	2380	1
3	5331	2384	1
3	5342	2388	1
3	5351	2392	1
3	5361	2396	1
3	5366	2400	1
3	5377	2404	1
3	5387	2408	1
3	5398	2412	1
3	5409	2416	1
3	5414	2420	1
3	5424	2424	1
3	5435	2428	1
3	5447	2432	1
3	5456	2436	1
3	5461	2440	1
3	5469	2444	1
3	5479	2448	1
3	5491	2452	1
3	5500	2456	1
3	5505	2460	1
3	5513	2464	1
3	5523	2468	1
3	5534	2472	1
3	5545	2476	1
3	5550	2480	1
3	5561	2484	1
3	5570	2488	1
3	5579	2492	1
3	5588	2496	1
3	5593	2500	1
3	5603	2504	1
3	5613	2508	1
3	5624	2512	1
3	5635	2516	1
3	5640	2520	1
3	5649	2524	1
3	5659	2528	1
3	5669	2532	1
3	5679	2536	1
3	5684	2540	1
3	5693	2544	1
3	5703	2548	1
3	5714	2552	1
3	5725	2556	1
3	5730	2560	1
3	5740	2564	1
3	5751	2568	1
3	5764	2572	1
3	5773	2576	1
3	5778	2580	1
3	5786	2584	1
3	5795	2588	1
3	5804	2592	1
3	5814	2596	1
3	5819	2600	1
3	5830	2604	1
3	5839	2608	1
3	5848	2612	1
3	5857	2616	1
3	5862	2620	1
3	5870	2624	1
3	5880	2628	1
3	5891	2632	1
3	5903	2636	1
3	5908	2640	1
3	5916	2644	1
3	5925	2648	1
3	5935	2652	1
3	5946	2656	1
3	5951	2660	1
3	5960	2664	1
3	5970	2668	1
3	5981	2672	1
3	5992	2676	1
3	5997	2680	1
3	6007	2684	1
3	6018	2688	1
3	6030	2692	1
3	6040	2696	1
3	6045	2700	1
3	6054	2704	1
3	6064	2708	1
3	6074	2712	1
3	6085	2716	1
3	6090	2720	1
3	6098	2724	1
3	6107	2728	1
3	6116	2732	1
3	6125	2736	1
3	6130	2740	1
3	6139	2744	1
3	6149	2748	1
3	6159	2752	1
3	6169	2756	1
3	6174	2760	1
3	6184	2764	1
3	6193	2768	1
3	6202	2772	1
3	6212	2776	1
3	6217	2780	1
3	6227	2784	1
3	6239	2788	1
3	6248	2792	1
3	6257	2796	1
3	6262	2800	1
3	6270	2804	1
3	6279	2808	1
3	6289	2812	1
3	6301	2816	1
3	6306	2820	1
3	6314	2824	1
3	6323	2828	1
3	6332	2832	1
3	6342	2836	1
3	6347	2840	1
3	6357	2844	1
3	6369	2848	1
3	6378	2852	1
3	6387	2856	1
3	6392	2860	1
3	6401	2864	1
3	6412	2868	1
3	6422	2872	1
3	6433	2876	1
3	6438	2880	1
3	6446	2884	1
3	6455	2888	1
3	6464	2892	1
3	6473	2896	1
3	6478	2900	1
3	6487	2904	1
3	6498	2908	1
3	6509	2912	1
3	6520	2916	1
3	6525	2920	1
3	6534	2924	1
3	6545	2928	1
3	6554	2932	1
3	6563	2936	1
3	6568	2940	1
3	6577	2944	1
3	6588	2948	1
3	6598	2952	1
3	6608	2956	1
3	6613	2960	1
3	6623	2964	1
3	6634	2968	1
3	6645	2972	1
3	6656	2976	1
3	6661	2980	1
3	6671	2984	1
3	6683	2988	1
3	6692	2992	1
3	6702	2996	1
3	6707	3000	1
3	6716	3004	1
3	6726	3008	1
3	6737	3012	1
3	6749	3016	1
3	6754	3020	1
3	6762	3024	1
3	6771	3028	1
3	6780	3032	1
3	6789	3036	1
3	6794	3040	1
3	6802	3044	1
3	6812	3048	1
3	6823	3052	1
3	6835	3056	1
3	6840	3060	1
3	6848	3064	1
3	6857	3068	1
3	6866	3072	1
3	6875	3076	1
3	6880	3080	1
3	6889	3084	1
3	6900	3088	1
3	6911	3092	1
3	6922	3096	1
3	6927	3100	1
3	6937	3104	1
3	6947	3108	1
3	6957	3112	1
3	6969	3116	1
3	6974	3120	1
3	6982	3124	1
3	6992	3128	1
3	7003	3132	1
3	7015	3136	1
3	7020	3140	1
3	7028	3144	1
3	7037	3148	1
3	7046	3152	1
3	7055	3156	1
3	7060	3160	1
3	7068	3164	1
3	7078	3168	1
3	7089	3172	1
3	7100	3176	1
3	7105	3180	1
3	7116	3184	1
3	7125	3188	1
3	7134	3192	1
3	7143	3196	1
3	7148	3200	1
3	7156	3204	1
3	7166	3208	1
3	7177	3212	1
3	7188	3216	1
3	7193	3220	1
3	7202	3224	1
3	7212	3228	1
3	7223	3232	1
3	7236	3236	1
3	7241	3240	1
3	7249	3244	1
3	7258	3248	1
3	7267	3252	1
3	7276	3256	1
3	7281	3260	1
3	7289	3264	1
3	7299	3268	1
3	7310	3272	1
3	7321	3276	1
3	7326	3280	1
3	7335	3284	1
3	7344	3288	1
3	7354	3292	1
3	7365	3296	1
3	7370	3300	1
3	7380	3304	1
3	7390	3308	1
3	7400	3312	1
3	7411	3316	1
3	7416	3320	1
3	7425	3324	1
3	7435	3328	1
3	7446	3332	1
3	7457	3336	1
3	7462	3340	1
3	7472	3344	1
3	7483	3348	1
3	7494	3352	1
3	7505	3356	1
3	7510	3360	1
3	7520	3364	1
3	7530	3368	1
3	7539	3372	1
3	7549	3376	1
3	7554	3380	1
3	7564	3384	1
3	7576	3388	1
3	7585	3392	1
3	7594	3396	1
3	7599	3400	1
3	7608	3404	1
3	7619	3408	1
3	7629	3412	1
3	7639	3416	1
3	7644	3420	1
3	7655	3424	1
3	7664	3428	1
3	7673	3432	1
3	7682	3436	1
3	7687	3440	1
3	7696	3444	1
3	7707	3448	1
3	7718	3452	1
3	7730	3456	1
3	7735	3460	1
3	7743	3464	1
3	7752	3468	1
3	7761	3472	1
3	7770	3476	1
3	7775	3480	1
3	7784	3484	1
3	7795	3488	1
3	7805	3492	1
3	7815	3496	1
3	7820	3500	1
3	7831	3504	1
3	7840	3508	1
3	7849	3512	1
3	7858	3516	1
3	7863	3520	1
3	7871	3524	1
3	7880	3528	1
3	7890	3532	1
3	7900	3536	1
3	7905	3540	1
3	7913	3544	1
3	7923	3548	1
3	7934	3552	1
3	7945	3556	1
3	7950	3560	1
3	7960	3564	1
3	7971	3568	1
3	7982	3572	1
3	7993	3576	1
3	7998	3580	1
3	8008	3584	1
3	8019	3588	1
3	8030	3592	1
3	8042	3596	1
3	8047	3600	1
4	5	5	0
4	18	10	0
4	27	15	0
4	36	20	0
4	51	25	0
4	61	30	1
4	73	35	0
4	82	40	0
4	95	45	0
4	105	50	1
4	117	55	0
4	126	60	0
4	140	65	1
4	152	70	0
4	161	75	0
4	171	80	1
4	185	85	0
4	195	90	1
4	206	95	1
4	218	100	0
4	231	105	0
4	240	110	0
4	249	115	0
4	258	120	0
4	272	125	1
4	283	130	1
4	295	135	0
4	305	140	1
4	320	145	1
4	331	150	1
4	342	155	1
4	354	160	0
4	367	165	0
4	377	170	1
4	387	175	0
4	396	180	0
4	410	185	1
4	422	190	0
4	431	195	0
4	440	200	0
4	453	205	0
4	462	210	0
4	473	215	0
4	482	220	0
4	495	225	0
4	504	230	0
4	514	235	1
4	526	240	0
4	539	245	0
4	548	250	0
4	558	255	1
4	569	260	1
4	584	265	1
4	596	270	0
4	605	275	0
4	614	280	0
4	627	285	0
4	637	290	1
4	648	295	1
4	660	300	0
4	673	305	0
4	682	310	0
4	691	315	0
4	700	320	0
4	715	325	0
4	724	330	0
4	733	335	0
4	742	340	0
4	756	345	1
4	768	350	0
4	777	355	0
4	787	360	1
4	803	365	0
4	812	370	0
4	821	375	0
4	831	380	1
4	846	385	1
4	856	390	0
4	868	395	0
4	877	400	0
4	890	405	0
4	899	410	0
4	908	415	0
4	918	420	1
4	934	425	0
4	944	430	1
4	954	435	0
4	963	440	0
4	977	445	1
4	989	450	0
4	999	455	1
4	1010	460	1
4	1025	465	1
4	1036	470	1
4	1047	475	1
4	1057	480	0
4	1072	485	0
4	1081	490	0
4	1090	495	0
4	1100	500	1
4	1115	505	1
4	1126	510	1
4	1138	515	0
4	1148	520	1
4	1163	525	1
4	1174	530	1
4	1186	535	0
4	1196	540	1
4	1211	545	1
4	1223	550	0
4	1232	555	0
4	1242	560	1
4	1257	565	1
4	1268	570	1
4	1280	575	0
4	1289	580	0
4	1304	585	0
4	1313	590	0
4	1322	595	0
4	1331	600	0
4	1346	605	0
4	1356	610	1
4	1368	615	0
4	1377	620	0
4	1390	625	0
4	1400	630	1
4	1411	635	1
4	1423	640	0
4	1437	645	1
4	1448	650	1
4	1460	655	0
4	1470	660	1
4	1486	665	0
4	1496	670	1
4	1507	675	1
4	1518	680	1
4	1534	685	0
4	1543	690	0
4	1552	695	0
4	1561	700	0
4	1575	705	1
4	1585	710	0
4	1596	715	0
4	1605	720	0
4	1618	725	0
4	1628	730	1
4	1639	735	1
4	1649	740	0
4	1663	745	1
4	1675	750	0
4	1685	755	1
4	1696	760	1
4	1711	765	1
4	1722	770	1
4	1733	775	1
4	1745	780	0
4	1759	785	1
4	1769	790	0
4	1780	795	0
4	1790	800	1
4	1805	805	1
4	1816	810	1
4	1829	815	0
4	1838	820	0
4	1851	825	0
4	1860	830	0
4	1869	835	0
4	1879	840	1
4	1895	845	0
4	1905	850	1
4	1916	855	1
4	1927	860	1
4	1943	865	0
4	1952	870	0
4	1962	875	1
4	1973	880	1
4	1988	885	1
4	1998	890	0
4	2011	895	0
4	2020	900	0
4	2033	905	0
4	2042	910	0
4	2052	915	1
4	2064	920	0
4	2077	925	0
4	2086	930	0
4	2095	935	0
4	2104	940	0
4	2118	945	1
4	2130	950	0
4	2139	955	0
4	2148	960	0
4	2161	965	0
4	2172	970	0
4	2182	975	1
4	2193	980	1
4	2208	985	1
4	2219	990	1
4	2230	995	1
4	2240	1000	0
4	2254	1005	1
4	2265	1010	1
4	2277	1015	0
4	2286	1020	0
4	2299	1025	0
4	2309	1030	1
4	2320	1035	1
4	2332	1040	0
4	2346	1045	1
4	2357	1050	1
4	2368	1055	1
4	2379	1060	1
4	2394	1065	1
4	2407	1070	0
4	2416	1075	0
4	2425	1080	0
4	2439	1085	1
4	2451	1090	0
4	2460	1095	0
4	2470	1100	1
4	2485	1105	1
4	2498	1110	0
4	2507	1115	0
4	2516	1120	0
4	2530	1125	1
4	2542	1130	0
4	2551	1135	0
4	2560	1140	0
4	2574	1145	1
4	2584	1150	0
4	2595	1155	0
4	2605	1160	1
4	2620	1165	1
4	2631	1170	1
4	2644	1175	0
4	2653	1180	0
4	2667	1185	1
4	2678	1190	1
4	2689	1195	1
4	2702	1200	0
4	2716	1205	1
4	2727	1210	1
4	2738	1215	1
4	2750	1220	0
4	2763	1225	0
4	2772	1230	0
4	2782	1235	1
4	2794	1240	0
4	2807	1245	0
4	2818	1250	0
4	2827	1255	0
4	2836	1260	0
4	2849	1265	0
4	2860	1270	0
4	2869	1275	0
4	2878	1280	0
4	2891	1285	0
4	2901	1290	1
4	2912	1295	1
4	2924	1300	0
4	2937	1305	0
4	2946	1310	0
4	2956	1315	1
4	2967	1320	1
4	2983	1325	0
4	2993	1330	1
4	3004	1335	1
4	3017	1340	0
4	3030	1345	0
4	3039	1350	0
4	3050	1355	0
4	3059	1360	0
4	3073	1365	1
4	3084	1370	1
4	3095	1375	1
4	3105	1380	0
4	3119	1385	1
4	3131	1390	0
4	3140	1395	0
4	3149	1400	0
4	3163	1405	1
4	3174	1410	1
4	3185	1415	1
4	3196	1420	1
4	3211	1425	1
4	3222	1430	1
4	3234	1435	0
4	3243	1440	0
4	3256	1445	0
4	3265	1450	0
4	3274	1455	0
4	3283	1460	0
4	3298	1465	0
4	3307	1470	0
4	3316	1475	0
4	3325	1480	0
4	3338	1485	0
4	3347	1490	0
4	3356	1495	0
4	3366	1500	1
4	3381	1505	1
4	3393	1510	0
4	3402	1515	0
4	3411	1520	0
4	3424	1525	0
4	3434	1530	1
4	3445	1535	1
4	3456	1540	1
4	3471	1545	1
4	3482	1550	1
4	3493	1555	1
4	3503	1560	0
4	3517	1565	1
4	3528	1570	1
4	3540	1575	0
4	3550	1580	1
4	3565	1585	1
4	3577	1590	0
4	3586	1595	0
4	3595	1600	0
4	3608	1605	0
4	3617	1610	0
4	3626	1615	0
4	3635	1620	0
4	3649	1625	1
4	3661	1630	0
4	3670	1635	0
4	3680	1640	1
4	3695	1645	1
4	3706	1650	1
4	3716	1655	0
4	3727	1660	0
4	3741	1665	1
4	3751	1670	0
4	3760	1675	0
4	3771	1680	0
4	3784	1685	0
4	3793	1690	0
4	3802	1695	0
4	3812	1700	1
4	3828	1705	0
4	3837	1710	0
4	3846	1715	0
4	3856	1720	1
4	3871	1725	1
4	3881	1730	0
4	3893	1735	0
4	3902	1740	0
4	3915	1745	0
4	3924	1750	0
4	3935	1755	0
4	3944	1760	0
4	3957	1765	0
4	3966	1770	0
4	3975	1775	0
4	3984	1780	0
4	3998	1785	1
4	4009	1790	1
4	4020	1795	1
4	4031	1800	1
4	4047	1805	0
4	4056	1810	0
4	4065	1815	0
4	4075	1820	1
4	4090	1825	1
4	4100	1830	0
4	4112	1835	0
4	4121	1840	0
4	4134	1845	0
4	4143	1850	0
4	4153	1855	1
4	4164	1860	1
4	4178	1865	0
4	4188	1870	1
4	4199	1875	1
4	4211	1880	0
4	4225	1885	1
4	4235	1890	0
4	4245	1895	1
4	4257	1900	0
4	4270	1905	0
4	4279	1910	0
4	4289	1915	1
4	4302	1920	0
4	4315	1925	0
4	4324	1930	0
4	4334	1935	1
4	4346	1940	0
4	4359	1945	0
4	4368	1950	0
4	4378	1955	1
4	4390	1960	0
4	4403	1965	0
4	4413	1970	1
4	4425	1975	0
4	4434	1980	0
4	4447	1985	0
4	4457	1990	1
4	4469	1995	0
4	4478	2000	0
4	4491	2005	0
4	4501	2010	1
4	4512	2015	1
4	4524	2020	0
4	4537	2025	0
4	4546	2030	0
4	4556	2035	1
4	4567	2040	1
4	4582	2045	1
4	4594	2050	0
4	4603	2055	0
4	4612	2060	0
4	4625	2065	0
4	4635	2070	1
4	4648	2075	0
4	4657	2080	0
4	4670	2085	0
4	4680	2090	1
4	4691	2095	1
4	4702	2100	1
4	4717	2105	1
4	4728	2110	1
4	4740	2115	0
4	4749	2120	0
4	4763	2125	1
4	4774	2130	1
4	4785	2135	1
4	4796	2140	1
4	4812	2145	0
4	4822	2150	1
4	4832	2155	0
4	4843	2160	0
4	4856	2165	0
4	4865	2170	0
4	4874	2175	0
4	4883	2180	0
4	4896	2185	0
4	4905	2190	0
4	4916	2195	0
4	4925	2200	0
4	4938	2205	0
4	4947	2210	0
4	4958	2215	0
4	4967	2220	0
4	4980	2225	0
4	4990	2230	1
4	5001	2235	1
4	5013	2240	0
4	5026	2245	0
4	5035	2250	0
4	5044	2255	0
4	5054	2260	1
4	5069	2265	1
4	5079	2270	0
4	5090	2275	0
4	5099	2280	0
4	5112	2285	0
4	5121	2290	0
4	5131	2295	1
4	5141	2300	0
4	5155	2305	1
4	5166	2310	1
4	5178	2315	0
4	5187	2320	0
4	5200	2325	0
4	5210	2330	1
4	5221	2335	1
4	5233	2340	0
4	5246	2345	0
4	5255	2350	0
4	5264	2355	0
4	5274	2360	1
4	5289	2365	1
4	5301	2370	0
4	5310	2375	0
4	5319	2380	0
4	5332	2385	0
4	5343	2390	0
4	5352	2395	0
4	5362	2400	1
4	5378	2405	0
4	5388	2410	1
4	5399	2415	1
4	5410	2420	1
4	5425	2425	1
4	5436	2430	1
4	5448	2435	0
4	5457	2440	0
4	5470	2445	0
4	5480	2450	1
4	5492	2455	0
4	5501	2460	0
4	5514	2465	0
4	5524	2470	1
4	5535	2475	1
4	5546	2480	1
4	5562	2485	0
4	5571	2490	0
4	5580	2495	0
4	5589	2500	0
4	5604	2505	0
4	5614	2510	1
4	5625	2515	1
4	5636	2520	1
4	5650	2525	0
4	5660	2530	1
4	5670	2535	0
4	5680	2540	1
4	5694	2545	0
4	5704	2550	1
4	5715	2555	1
4	5726	2560	1
4	5741	2565	1
4	5752	2570	1
4	5765	2575	0
4	5774	2580	0
4	5787	2585	0
4	5796	2590	0
4	5805	2595	0
4	5815	2600	1
4	5831	2605	0
4	5840	2610	0
4	5849	2615	0
4	5858	2620	0
4	5871	2625	0
4	5881	2630	1
4	5892	2635	1
4	5904	2640	0
4	5917	2645	0
4	5926	2650	0
4	5936	2655	1
4	5947	2660	1
4	5961	2665	0
4	5971	2670	1
4	5982	2675	1
4	5993	2680	1
4	6008	2685	1
4	6019	2690	1
4	6031	2695	0
4	6041	2700	1
4	6055	2705	0
4	6065	2710	1
4	6075	2715	0
4	6086	2720	0
4	6099	2725	0
4	6108	2730	0
4	6117	2735	0
4	6126	2740	0
4	6140	2745	1
4	6150	2750	0
4	6160	2755	1
4	6170	2760	0
4	6185	2765	0
4	6194	2770	0
4	6203	2775	0
4	6213	2780	1
4	6228	2785	1
4	6240	2790	0
4	6249	2795	0
4	6258	2800	0
4	6271	2805	0
4	6280	2810	0
4	6290	2815	1
4	6302	2820	0
4	6315	2825	0
4	6324	2830	0
4	6333	2835	0
4	6343	2840	1
4	6358	2845	1
4	6370	2850	0
4	6379	2855	0
4	6388	2860	0
4	6402	2865	1
4	6413	2870	1
4	6423	2875	0
4	6434	2880	0
4	6447	2885	0
4	6456	2890	0
4	6465	2895	0
4	6474	2900	0
4	6488	2905	1
4	6499	2910	1
4	6510	2915	1
4	6521	2920	1
4	6535	2925	0
4	6546	2930	0
4	6555	2935	0
4	6564	2940	0
4	6578	2945	1
4	6589	2950	1
4	6599	2955	0
4	6609	2960	1
4	6624	2965	1
4	6635	2970	1
4	6646	2975	1
4	6657	2980	1
4	6672	2985	1
4	6684	2990	0
4	6693	2995	0
4	6703	3000	1
4	6717	3005	0
4	6727	3010	1
4	6738	3015	1
4	6750	3020	0
4	6763	3025	0
4	6772	3030	0
4	6781	3035	0
4	6790	3040	0
4	6803	3045	0
4	6813	3050	1
4	6824	3055	1
4	6836	3060	0
4	6849	3065	0
4	6858	3070	0
4	6867	3075	0
4	6876	3080	0
4	6890	3085	1
4	6901	3090	1
4	6912	3095	1
4	6923	3100	1
4	6938	3105	1
4	6948	3110	0
4	6958	3115	1
4	6970	3120	0
4	6983	3125	0
4	6993	3130	1
4	7004	3135	1
4	7016	3140	0
4	7029	3145	0
4	7038	3150	0
4	7047	3155	0
4	7056	3160	0
4	7069	3165	0
4	7079	3170	1
4	7090	3175	1
4	7101	3180	1
4	7117	3185	0
4	7126	3190	0
4	7135	3195	0
4	7144	3200	0
4	7157	3205	0
4	7167	3210	1
4	7178	3215	1
4	7189	3220	1
4	7203	3225	0
4	7213	3230	1
4	7224	3235	1
4	7237	3240	0
4	7250	3245	0
4	7259	3250	0
4	7268	3255	0
4	7277	3260	0
4	7290	3265	0
4	7300	3270	1
4	7311	3275	1
4	7322	3280	1
4	7336	3285	0
4	7345	3290	0
4	7355	3295	1
4	7366	3300	1
4	7381	3305	1
4	7391	3310	0
4	7401	3315	1
4	7412	3320	1
4	7426	3325	0
4	7436	3330	1
4	7447	3335	1
4	7458	3340	1
4	7473	3345	1
4	7484	3350	1
4	7495	3355	1
4	7506	3360	1
4	7521	3365	1
4	7531	3370	0
4	7540	3375	0
4	7550	3380	1
4	7565	3385	1
4	7577	3390	0
4	7586	3395	0
4	7595	3400	0
4	7609	3405	1
4	7620	3410	1
4	7630	3415	0
4	7640	3420	1
4	7656	3425	0
4	7665	3430	0
4	7674	3435	0
4	7683	3440	0
4	7697	3445	1
4	7708	3450	1
4	7719	3455	1
4	7731	3460	0
4	7744	3465	0
4	7753	3470	0
4	7762	3475	0
4	7771	3480	0
4	7785	3485	1
4	7796	3490	1
4	7806	3495	0
4	7816	3500	1
4	7832	3505	0
4	7841	3510	0
4	7850	3515	0
4	7859	3520	0
4	7872	3525	0
4	7881	3530	0
4	7891	3535	1
4	7901	3540	0
4	7914	3545	0
4	7924	3550	1
4	7935	3555	1
4	7946	3560	1
4	7961	3565	1
4	7972	3570	1
4	7983	3575	1
4	7994	3580	1
4	8009	3585	1
4	8020	3590	1
4	8031	3595	1
4	8043	3600	0
5	47	24	1
5	57	28	1
5	69	32	1
5	78	36	1
5	83	40	1
5	91	44	1
5	101	48	1
5	113	52	1
5	122	56	1
5	127	60	1
5	136	64	1
5	148	68	1
5	157	72	1
5	167	76	1
5	172	80	1
5	181	84	1
5	191	88	1
5	202	92	1
5	214	96	1
5	219	100	1
5	227	104	1
5	236	108	1
5	245	112	1
5	254	116	1
5	259	120	1
5	268	124	1
5	279	128	1
5	291	132	1
5	301	136	1
5	306	140	1
5	316	144	1
5	327	148	1
5	338	152	1
5	350	156	1
5	355	160	1
5	363	164	1
5	373	168	1
5	383	172	1
5	392	176	1
5	397	180	1
5	406	184	1
5	418	188	1
5	427	192	1
5	436	196	1
5	441	200	1
5	449	204	1
5	458	208	1
5	469	212	1
5	478	216	1
5	483	220	1
5	491	224	1
5	500	228	1
5	510	232	1
5	522	236	1
5	527	240	1
5	535	244	1
5	544	248	1
5	554	252	1
5	565	256	1
5	570	260	1
5	580	264	1
5	592	268	1
5	601	272	1
5	610	276	1
5	615	280	1
5	623	284	1
5	633	288	1
5	644	292	1
5	656	296	1
5	661	300	1
5	669	304	1
5	678	308	1
5	687	312	1
5	696	316	1
5	701	320	1
5	711	324	1
5	720	328	1
5	729	332	1
5	738	336	1
5	743	340	1
5	752	344	1
5	764	348	1
5	773	352	1
5	783	356	1
5	788	360	1
5	799	364	1
5	808	368	1
5	817	372	1
5	827	376	1
5	832	380	1
5	842	384	1
5	852	388	1
5	864	392	1
5	873	396	1
5	878	400	1
5	886	404	1
5	895	408	1
5	904	412	1
5	914	416	1
5	919	420	1
5	940	428	1
5	950	432	1
5	959	436	1
5	964	440	1
5	973	444	1
5	985	448	1
5	995	452	1
5	1011	460	1
5	1058	480	1
5	1068	484	1
5	1077	488	1
5	1086	492	1
5	1096	496	1
5	1101	500	1
5	1122	508	1
5	1134	512	1
5	1144	516	1
5	1149	520	1
5	1159	524	1
5	1170	528	1
5	1182	532	1
5	1192	536	1
5	1197	540	1
5	1219	548	1
5	1228	552	1
5	1238	556	1
5	1243	560	1
5	1253	564	1
5	1264	568	1
5	1276	572	1
5	1285	576	1
5	1290	580	1
5	1300	584	1
5	1309	588	1
5	1318	592	1
5	1327	596	1
5	1332	600	1
5	1342	604	1
5	1352	608	1
5	1364	612	1
5	1373	616	1
5	1378	620	1
5	1386	624	1
5	1396	628	1
5	1407	632	1
5	1419	636	1
5	1424	640	1
5	1433	644	1
5	1466	656	1
5	1471	660	1
5	1482	664	1
5	1492	668	1
5	1519	680	1
5	1539	688	1
5	1548	692	1
5	1557	696	1
5	1562	700	1
5	1571	704	1
5	1581	708	1
5	1592	712	1
5	1601	716	1
5	1606	720	1
5	1614	724	1
5	1624	728	1
5	1635	732	1
5	1645	736	1
5	1650	740	1
5	1659	744	1
5	1671	748	1
5	1681	752	1
5	1697	760	1
5	1746	780	1
5	1755	784	1
5	1765	788	1
5	1776	792	1
5	1786	796	1
5	1791	800	1
5	1834	816	1
5	1839	820	1
5	1847	824	1
5	1856	828	1
5	1865	832	1
5	1875	836	1
5	1880	840	1
5	1891	844	1
5	1901	848	1
5	1912	852	1
5	1923	856	1
5	1928	860	1
5	1939	864	1
5	1948	868	1
5	1958	872	1
5	1969	876	1
5	1974	880	1
5	1984	884	1
5	1994	888	1
5	2007	892	1
5	2016	896	1
5	2021	900	1
5	2029	904	1
5	2038	908	1
5	2048	912	1
5	2060	916	1
5	2065	920	1
5	2073	924	1
5	2082	928	1
5	2091	932	1
5	2100	936	1
5	2105	940	1
5	2114	944	1
5	2126	948	1
5	2135	952	1
5	2144	956	1
5	2149	960	1
5	2157	964	1
5	2168	968	1
5	2178	972	1
5	2189	976	1
5	2194	980	1
5	2204	984	1
5	2215	988	1
5	2226	992	1
5	2236	996	1
5	2241	1000	1
5	2250	1004	1
5	2261	1008	1
5	2273	1012	1
5	2282	1016	1
5	2287	1020	1
5	2295	1024	1
5	2305	1028	1
5	2333	1040	1
5	2342	1044	1
5	2353	1048	1
5	2364	1052	1
5	2375	1056	1
5	2380	1060	1
5	2412	1072	1
5	2421	1076	1
5	2426	1080	1
5	2435	1084	1
5	2447	1088	1
5	2456	1092	1
5	2466	1096	1
5	2471	1100	1
5	2481	1104	1
5	2494	1108	1
5	2503	1112	1
5	2512	1116	1
5	2517	1120	1
5	2526	1124	1
5	2538	1128	1
5	2547	1132	1
5	2556	1136	1
5	2561	1140	1
5	2570	1144	1
5	2580	1148	1
5	2591	1152	1
5	2601	1156	1
5	2606	1160	1
5	2616	1164	1
5	2640	1172	1
5	2649	1176	1
5	2654	1180	1
5	2663	1184	1
5	2674	1188	1
5	2685	1192	1
5	2698	1196	1
5	2703	1200	1
5	2712	1204	1
5	2746	1216	1
5	2751	1220	1
5	2759	1224	1
5	2768	1228	1
5	2778	1232	1
5	2790	1236	1
5	2795	1240	1
5	2803	1244	1
5	2814	1248	1
5	2823	1252	1
5	2832	1256	1
5	2837	1260	1
5	2845	1264	1
5	2856	1268	1
5	2865	1272	1
5	2874	1276	1
5	2879	1280	1
5	2887	1284	1
5	2897	1288	1
5	2908	1292	1
5	2920	1296	1
5	2925	1300	1
5	2933	1304	1
5	2942	1308	1
5	2952	1312	1
5	2963	1316	1
5	2968	1320	1
5	2979	1324	1
5	2989	1328	1
5	3000	1332	1
5	3013	1336	1
5	3018	1340	1
5	3026	1344	1
5	3035	1348	1
5	3046	1352	1
5	3055	1356	1
5	3060	1360	1
5	3069	1364	1
5	3080	1368	1
5	3091	1372	1
5	3101	1376	1
5	3106	1380	1
5	3115	1384	1
5	3127	1388	1
5	3136	1392	1
5	3145	1396	1
5	3150	1400	1
5	3159	1404	1
5	3170	1408	1
5	3181	1412	1
5	3192	1416	1
5	3197	1420	1
5	3207	1424	1
5	3218	1428	1
5	3230	1432	1
5	3239	1436	1
5	3244	1440	1
5	3252	1444	1
5	3261	1448	1
5	3270	1452	1
5	3279	1456	1
5	3284	1460	1
5	3294	1464	1
5	3303	1468	1
5	3312	1472	1
5	3321	1476	1
5	3326	1480	1
5	3334	1484	1
5	3343	1488	1
5	3352	1492	1
5	3362	1496	1
5	3367	1500	1
5	3377	1504	1
5	3389	1508	1
5	3398	1512	1
5	3407	1516	1
5	3412	1520	1
5	3420	1524	1
5	3430	1528	1
5	3441	1532	1
5	3452	1536	1
5	3457	1540	1
5	3467	1544	1
5	3478	1548	1
5	3489	1552	1
5	3499	1556	1
5	3504	1560	1
5	3513	1564	1
5	3524	1568	1
5	3546	1576	1
5	3551	1580	1
5	3582	1592	1
5	3591	1596	1
5	3596	1600	1
5	3604	1604	1
5	3613	1608	1
5	3622	1612	1
5	3631	1616	1
5	3636	1620	1
5	3645	1624	1
5	3666	1632	1
5	3676	1636	1
5	3681	1640	1
5	3691	1644	1
5	3702	1648	1
5	3712	1652	1
5	3723	1656	1
5	3728	1660	1
5	3737	1664	1
5	3747	1668	1
5	3756	1672	1
5	3767	1676	1
5	3772	1680	1
5	3780	1684	1
5	3789	1688	1
5	3798	1692	1
5	3808	1696	1
5	3813	1700	1
5	3833	1708	1
5	3842	1712	1
5	3852	1716	1
5	3857	1720	1
5	3867	1724	1
5	3877	1728	1
5	3889	1732	1
5	3898	1736	1
5	3903	1740	1
5	3911	1744	1
5	3920	1748	1
5	3931	1752	1
5	3940	1756	1
5	3945	1760	1
5	3953	1764	1
5	3962	1768	1
5	3971	1772	1
5	3980	1776	1
5	3985	1780	1
5	3994	1784	1
5	4027	1796	1
5	4032	1800	1
5	4043	1804	1
5	4052	1808	1
5	4061	1812	1
5	4071	1816	1
5	4076	1820	1
5	4086	1824	1
5	4096	1828	1
5	4108	1832	1
5	4117	1836	1
5	4122	1840	1
5	4130	1844	1
5	4139	1848	1
5	4149	1852	1
5	4160	1856	1
5	4165	1860	1
5	4174	1864	1
5	4184	1868	1
5	4195	1872	1
5	4207	1876	1
5	4212	1880	1
5	4221	1884	1
5	4241	1892	1
5	4258	1900	1
5	4266	1904	1
5	4275	1908	1
5	4285	1912	1
5	4298	1916	1
5	4303	1920	1
5	4311	1924	1
5	4320	1928	1
5	4330	1932	1
5	4342	1936	1
5	4347	1940	1
5	4355	1944	1
5	4364	1948	1
5	4374	1952	1
5	4386	1956	1
5	4391	1960	1
5	4399	1964	1
5	4409	1968	1
5	4421	1972	1
5	4430	1976	1
5	4435	1980	1
5	4443	1984	1
5	4453	1988	1
5	4474	1996	1
5	4479	2000	1
5	4487	2004	1
5	4497	2008	1
5	4525	2020	1
5	4533	2024	1
5	4542	2028	1
5	4552	2032	1
5	4568	2040	1
5	4578	2044	1
5	4590	2048	1
5	4599	2052	1
5	4608	2056	1
5	4613	2060	1
5	4621	2064	1
5	4631	2068	1
5	4644	2072	1
5	4653	2076	1
5	4658	2080	1
5	4666	2084	1
5	4676	2088	1
5	4687	2092	1
5	4698	2096	1
5	4703	2100	1
5	4713	2104	1
5	4724	2108	1
5	4736	2112	1
5	4745	2116	1
5	4750	2120	1
5	4759	2124	1
5	4770	2128	1
5	4781	2132	1
5	4792	2136	1
5	4797	2140	1
5	4808	2144	1
5	4818	2148	1
5	4828	2152	1
5	4839	2156	1
5	4844	2160	1
5	4852	2164	1
5	4861	2168	1
5	4870	2172	1
5	4879	2176	1
5	4884	2180	1
5	4892	2184	1
5	4901	2188	1
5	4912	2192	1
5	4921	2196	1
5	4926	2200	1
5	4934	2204	1
5	4943	2208	1
5	4954	2212	1
5	4963	2216	1
5	4968	2220	1
5	4976	2224	1
5	4986	2228	1
5	4997	2232	1
5	5009	2236	1
5	5014	2240	1
5	5022	2244	1
5	5031	2248	1
5	5040	2252	1
5	5050	2256	1
5	5055	2260	1
5	5065	2264	1
5	5075	2268	1
5	5086	2272	1
5	5095	2276	1
5	5100	2280	1
5	5108	2284	1
5	5117	2288	1
5	5127	2292	1
5	5137	2296	1
5	5142	2300	1
5	5151	2304	1
5	5162	2308	1
5	5174	2312	1
5	5183	2316	1
5	5188	2320	1
5	5196	2324	1
5	5206	2328	1
5	5217	2332	1
5	5229	2336	1
5	5234	2340	1
5	5242	2344	1
5	5251	2348	1
5	5260	2352	1
5	5270	2356	1
5	5275	2360	1
5	5285	2364	1
5	5297	2368	1
5	5306	2372	1
5	5315	2376	1
5	5320	2380	1
5	5328	2384	1
5	5339	2388	1
5	5348	2392	1
5	5358	2396	1
5	5363	2400	1
5	5374	2404	1
5	5384	2408	1
5	5395	2412	1
5	5406	2416	1
5	5411	2420	1
5	5421	2424	1
5	5432	2428	1
5	5444	2432	1
5	5453	2436	1
5	5458	2440	1
5	5466	2444	1
5	5476	2448	1
5	5488	2452	1
5	5497	2456	1
5	5502	2460	1
5	5510	2464	1
5	5520	2468	1
5	5531	2472	1
5	5542	2476	1
5	5547	2480	1
5	5558	2484	1
5	5567	2488	1
5	5576	2492	1
5	5585	2496	1
5	5590	2500	1
5	5600	2504	1
5	5610	2508	1
5	5621	2512	1
5	5632	2516	1
5	5637	2520	1
5	5646	2524	1
5	5656	2528	1
5	5666	2532	1
5	5676	2536	1
5	5681	2540	1
5	5690	2544	1
5	5700	2548	1
5	5711	2552	1
5	5722	2556	1
5	5727	2560	1
5	5737	2564	1
5	5748	2568	1
5	5761	2572	1
5	5770	2576	1
5	5775	2580	1
5	5783	2584	1
5	5792	2588	1
5	5801	2592	1
5	5811	2596	1
5	5816	2600	1
5	5827	2604	1
5	5836	2608	1
5	5845	2612	1
5	5854	2616	1
5	5859	2620	1
5	5867	2624	1
5	5877	2628	1
5	5888	2632	1
5	5900	2636	1
5	5905	2640	1
5	5913	2644	1
5	5922	2648	1
5	5932	2652	1
5	5943	2656	1
5	5948	2660	1
5	5957	2664	1
5	5967	2668	1
5	5978	2672	1
5	5989	2676	1
5	5994	2680	1
5	6004	2684	1
5	6015	2688	1
5	6027	2692	1
5	6037	2696	1
5	6042	2700	1
5	6051	2704	1
5	6061	2708	1
5	6071	2712	1
5	6082	2716	1
5	6087	2720	1
5	6095	2724	1
5	6104	2728	1
5	6113	2732	1
5	6122	2736	1
5	6127	2740	1
5	6136	2744	1
5	6146	2748	1
5	6156	2752	1
5	6166	2756	1
5	6171	2760	1
5	6181	2764	1
5	6190	2768	1
5	6199	2772	1
5	6209	2776	1
5	6214	2780	1
5	6224	2784	1
5	6236	2788	1
5	6245	2792	1
5	6254	2796	1
5	6259	2800	1
5	6267	2804	1
5	6276	2808	1
5	6286	2812	1
5	6298	2816	1
5	6303	2820	1
5	6311	2824	1
5	6320	2828	1
5	6329	2832	1
5	6339	2836	1
5	6344	2840	1
5	6354	2844	1
5	6366	2848	1
5	6375	2852	1
5	6384	2856	1
5	6389	2860	1
5	6398	2864	1
5	6409	2868	1
5	6419	2872	1
5	6430	2876	1
5	6435	2880	1
5	6443	2884	1
5	6452	2888	1
5	6461	2892	1
5	6470	2896	1
5	6475	2900	1
5	6484	2904	1
5	6495	2908	1
5	6506	2912	1
5	6517	2916	1
5	6522	2920	1
5	6531	2924	1
5	6542	2928	1
5	6551	2932	1
5	6560	2936	1
5	6565	2940	1
5	6574	2944	1
5	6585	2948	1
5	6595	2952	1
5	6605	2956	1
5	6610	2960	1
5	6620	2964	1
5	6631	2968	1
5	6642	2972	1
5	6653	2976	1
5	6658	2980	1
5	6668	2984	1
5	6680	2988	1
5	6689	2992	1
5	6699	2996	1
5	6704	3000	1
5	6713	3004	1
5	6723	3008	1
5	6734	3012	1
5	6746	3016	1
5	6751	3020	1
5	6759	3024	1
5	6768	3028	1
5	6777	3032	1
5	6786	3036	1
5	6791	3040	1
5	6799	3044	1
5	6809	3048	1
5	6820	3052	1
5	6832	3056	1
5	6837	3060	1
5	6845	3064	1
5	6854	3068	1
5	6863	3072	1
5	6872	3076	1
5	6877	3080	1
5	6886	3084	1
5	6897	3088	1
5	6908	3092	1
5	6919	3096	1
5	6924	3100	1
5	6934	3104	1
5	6944	3108	1
5	6954	3112	1
5	6966	3116	1
5	6971	3120	1
5	6979	3124	1
5	6989	3128	1
5	7000	3132	1
5	7012	3136	1
5	7017	3140	1
5	7025	3144	1
5	7034	3148	1
5	7043	3152	1
5	7052	3156	1
5	7057	3160	1
5	7065	3164	1
5	7075	3168	1
5	7086	3172	1
5	7097	3176	1
5	7102	3180	1
5	7113	3184	1
5	7122	3188	1
5	7131	3192	1
5	7140	3196	1
5	7145	3200	1
5	7153	3204	1
5	7163	3208	1
5	7174	3212	1
5	7185	3216	1
5	7190	3220	1
5	7199	3224	1
5	7209	3228	1
5	7220	3232	1
5	7233	3236	1
5	7238	3240	1
5	7246	3244	1
5	7255	3248	1
5	7264	3252	1
5	7273	3256	1
5	7278	3260	1
5	7286	3264	1
5	7296	3268	1
5	7307	3272	1
5	7318	3276	1
5	7323	3280	1
5	7332	3284	1
5	7341	3288	1
5	7351	3292	1
5	7362	3296	1
5	7367	3300	1
5	7377	3304	1
5	7387	3308	1
5	7397	3312	1
5	7408	3316	1
5	7413	3320	1
5	7422	3324	1
5	7432	3328	1
5	7443	3332	1
5	7454	3336	1
5	7459	3340	1
5	7469	3344	1
5	7480	3348	1
5	7491	3352	1
5	7502	3356	1
5	7507	3360	1
5	7517	3364	1
5	7527	3368	1
5	7536	3372	1
5	7546	3376	1
5	7551	3380	1
5	7561	3384	1
5	7573	3388	1
5	7582	3392	1
5	7591	3396	1
5	7596	3400	1
5	7605	3404	1
5	7616	3408	1
5	7626	3412	1
5	7636	3416	1
5	7641	3420	1
5	7652	3424	1
5	7661	3428	1
5	7670	3432	1
5	7679	3436	1
5	7684	3440	1
5	7693	3444	1
5	7704	3448	1
5	7715	3452	1
5	7727	3456	1
5	7732	3460	1
5	7740	3464	1
5	7749	3468	1
5	7758	3472	1
5	7767	3476	1
5	7772	3480	1
5	7781	3484	1
5	7792	3488	1
5	7802	3492	1
5	7812	3496	1
5	7817	3500	1
5	7828	3504	1
5	7837	3508	1
5	7846	3512	1
5	7855	3516	1
5	7860	3520	1
5	7868	3524	1
5	7877	3528	1
5	7887	3532	1
5	7897	3536	1
5	7902	3540	1
5	7910	3544	1
5	7920	3548	1
5	7931	3552	1
5	7942	3556	1
5	7947	3560	1
5	7957	3564	1
5	7968	3568	1
5	7979	3572	1
5	7990	3576	1
5	7995	3580	1
5	8005	3584	1
5	8016	3588	1
5	8027	3592	1
5	8039	3596	1
5	8044	3600	1
6	48	24	1
6	58	28	1
6	70	32	1
6	79	36	1
6	84	40	1
6	92	44	1
6	102	48	1
6	123	56	1
6	128	60	1
6	137	64	1
6	149	68	1
6	158	72	1
6	168	76	1
6	173	80	1
6	192	88	1
6	220	100	1
6	228	104	1
6	237	108	1
6	246	112	1
6	255	116	1
6	260	120	1
6	269	124	1
6	302	136	1
6	307	140	1
6	317	144	1
6	328	148	1
6	339	152	1
6	351	156	1
6	356	160	1
6	364	164	1
6	374	168	1
6	393	176	1
6	398	180	1
6	407	184	1
6	419	188	1
6	428	192	1
6	437	196	1
6	442	200	1
6	450	204	1
6	459	208	1
6	470	212	1
6	479	216	1
6	484	220	1
6	492	224	1
6	501	228	1
6	511	232	1
6	523	236	1
6	528	240	1
6	536	244	1
6	545	248	1
6	555	252	1
6	571	260	1
6	602	272	1
6	611	276	1
6	616	280	1
6	624	284	1
6	634	288	1
6	645	292	1
6	657	296	1
6	662	300	1
6	670	304	1
6	679	308	1
6	688	312	1
6	697	316	1
6	702	320	1
6	712	324	1
6	721	328	1
6	730	332	1
6	739	336	1
6	744	340	1
6	753	344	1
6	774	352	1
6	784	356	1
6	789	360	1
6	800	364	1
6	809	368	1
6	818	372	1
6	828	376	1
6	833	380	1
6	843	384	1
6	853	388	1
6	865	392	1
6	874	396	1
6	879	400	1
6	887	404	1
6	896	408	1
6	905	412	1
6	915	416	1
6	920	420	1
6	931	424	1
6	941	428	1
6	960	436	1
6	965	440	1
6	974	444	1
6	996	452	1
6	1007	456	1
6	1012	460	1
6	1022	464	1
6	1033	468	1
6	1044	472	1
6	1054	476	1
6	1059	480	1
6	1069	484	1
6	1078	488	1
6	1087	492	1
6	1097	496	1
6	1102	500	1
6	1112	504	1
6	1123	508	1
6	1135	512	1
6	1145	516	1
6	1150	520	1
6	1160	524	1
6	1171	528	1
6	1183	532	1
6	1193	536	1
6	1198	540	1
6	1208	544	1
6	1220	548	1
6	1229	552	1
6	1239	556	1
6	1244	560	1
6	1254	564	1
6	1265	568	1
6	1277	572	1
6	1286	576	1
6	1291	580	1
6	1301	584	1
6	1310	588	1
6	1319	592	1
6	1328	596	1
6	1333	600	1
6	1343	604	1
6	1353	608	1
6	1365	612	1
6	1374	616	1
6	1379	620	1
6	1387	624	1
6	1397	628	1
6	1408	632	1
6	1420	636	1
6	1425	640	1
6	1434	644	1
6	1445	648	1
6	1457	652	1
6	1467	656	1
6	1472	660	1
6	1483	664	1
6	1493	668	1
6	1504	672	1
6	1515	676	1
6	1520	680	1
6	1531	684	1
6	1540	688	1
6	1549	692	1
6	1558	696	1
6	1563	700	1
6	1572	704	1
6	1582	708	1
6	1593	712	1
6	1602	716	1
6	1607	720	1
6	1615	724	1
6	1625	728	1
6	1636	732	1
6	1646	736	1
6	1651	740	1
6	1660	744	1
6	1672	748	1
6	1682	752	1
6	1693	756	1
6	1698	760	1
6	1708	764	1
6	1719	768	1
6	1730	772	1
6	1742	776	1
6	1747	780	1
6	1756	784	1
6	1777	792	1
6	1787	796	1
6	1792	800	1
6	1802	804	1
6	1813	808	1
6	1826	812	1
6	1835	816	1
6	1840	820	1
6	1848	824	1
6	1857	828	1
6	1866	832	1
6	1876	836	1
6	1881	840	1
6	1892	844	1
6	1902	848	1
6	1913	852	1
6	1924	856	1
6	1929	860	1
6	1940	864	1
6	1949	868	1
6	1959	872	1
6	1975	880	1
6	2008	892	1
6	2017	896	1
6	2022	900	1
6	2030	904	1
6	2039	908	1
6	2049	912	1
6	2066	920	1
6	2074	924	1
6	2083	928	1
6	2092	932	1
6	2101	936	1
6	2106	940	1
6	2115	944	1
6	2127	948	1
6	2136	952	1
6	2145	956	1
6	2150	960	1
6	2158	964	1
6	2169	968	1
6	2179	972	1
6	2190	976	1
6	2195	980	1
6	2205	984	1
6	2216	988	1
6	2227	992	1
6	2237	996	1
6	2242	1000	1
6	2251	1004	1
6	2262	1008	1
6	2274	1012	1
6	2283	1016	1
6	2288	1020	1
6	2296	1024	1
6	2306	1028	1
6	2317	1032	1
6	2329	1036	1
6	2334	1040	1
6	2343	1044	1
6	2381	1060	1
6	2391	1064	1
6	2404	1068	1
6	2413	1072	1
6	2422	1076	1
6	2427	1080	1
6	2436	1084	1
6	2448	1088	1
6	2457	1092	1
6	2467	1096	1
6	2472	1100	1
6	2495	1108	1
6	2504	1112	1
6	2513	1116	1
6	2518	1120	1
6	2527	1124	1
6	2548	1132	1
6	2557	1136	1
6	2562	1140	1
6	2571	1144	1
6	2581	1148	1
6	2592	1152	1
6	2602	1156	1
6	2607	1160	1
6	2617	1164	1
6	2628	1168	1
6	2641	1172	1
6	2650	1176	1
6	2655	1180	1
6	2664	1184	1
6	2704	1200	1
6	2713	1204	1
6	2724	1208	1
6	2735	1212	1
6	2752	1220	1
6	2760	1224	1
6	2769	1228	1
6	2779	1232	1
6	2791	1236	1
6	2796	1240	1
6	2804	1244	1
6	2815	1248	1
6	2824	1252	1
6	2833	1256	1
6	2838	1260	1
6	2846	1264	1
6	2857	1268	1
6	2866	1272	1
6	2875	1276	1
6	2880	1280	1
6	2888	1284	1
6	2898	1288	1
6	2909	1292	1
6	2921	1296	1
6	2926	1300	1
6	2934	1304	1
6	2943	1308	1
6	2953	1312	1
6	2969	1320	1
6	2990	1328	1
6	3001	1332	1
6	3014	1336	1
6	3019	1340	1
6	3027	1344	1
6	3036	1348	1
6	3047	1352	1
6	3056	1356	1
6	3061	1360	1
6	3070	1364	1
6	3081	1368	1
6	3092	1372	1
6	3102	1376	1
6	3107	1380	1
6	3116	1384	1
6	3128	1388	1
6	3137	1392	1
6	3146	1396	1
6	3151	1400	1
6	3160	1404	1
6	3193	1416	1
6	3198	1420	1
6	3208	1424	1
6	3231	1432	1
6	3240	1436	1
6	3245	1440	1
6	3253	1444	1
6	3262	1448	1
6	3271	1452	1
6	3280	1456	1
6	3285	1460	1
6	3295	1464	1
6	3304	1468	1
6	3313	1472	1
6	3322	1476	1
6	3327	1480	1
6	3335	1484	1
6	3344	1488	1
6	3353	1492	1
6	3363	1496	1
6	3368	1500	1
6	3378	1504	1
6	3390	1508	1
6	3399	1512	1
6	3408	1516	1
6	3413	1520	1
6	3421	1524	1
6	3431	1528	1
6	3442	1532	1
6	3453	1536	1
6	3458	1540	1
6	3468	1544	1
6	3479	1548	1
6	3490	1552	1
6	3500	1556	1
6	3505	1560	1
6	3514	1564	1
6	3525	1568	1
6	3537	1572	1
6	3547	1576	1
6	3552	1580	1
6	3562	1584	1
6	3574	1588	1
6	3583	1592	1
6	3592	1596	1
6	3597	1600	1
6	3605	1604	1
6	3614	1608	1
6	3623	1612	1
6	3632	1616	1
6	3637	1620	1
6	3646	1624	1
6	3658	1628	1
6	3667	1632	1
6	3677	1636	1
6	3682	1640	1
6	3692	1644	1
6	3703	1648	1
6	3713	1652	1
6	3724	1656	1
6	3729	1660	1
6	3738	1664	1
6	3748	1668	1
6	3757	1672	1
6	3768	1676	1
6	3773	1680	1
6	3781	1684	1
6	3790	1688	1
6	3799	1692	1
6	3809	1696	1
6	3814	1700	1
6	3825	1704	1
6	3834	1708	1
6	3843	1712	1
6	3853	1716	1
6	3858	1720	1
6	3868	1724	1
6	3878	1728	1
6	3890	1732	1
6	3899	1736	1
6	3904	1740	1
6	3912	1744	1
6	3921	1748	1
6	3932	1752	1
6	3941	1756	1
6	3946	1760	1
6	3954	1764	1
6	3963	1768	1
6	3972	1772	1
6	3981	1776	1
6	3986	1780	1
6	3995	1784	1
6	4006	1788	1
6	4017	1792	1
6	4028	1796	1
6	4033	1800	1
6	4044	1804	1
6	4053	1808	1
6	4062	1812	1
6	4072	1816	1
6	4077	1820	1
6	4087	1824	1
6	4097	1828	1
6	4109	1832	1
6	4118	1836	1
6	4123	1840	1
6	4131	1844	1
6	4140	1848	1
6	4150	1852	1
6	4161	1856	1
6	4166	1860	1
6	4175	1864	1
6	4185	1868	1
6	4196	1872	1
6	4208	1876	1
6	4213	1880	1
6	4222	1884	1
6	4232	1888	1
6	4242	1892	1
6	4254	1896	1
6	4259	1900	1
6	4267	1904	1
6	4276	1908	1
6	4286	1912	1
6	4299	1916	1
6	4304	1920	1
6	4312	1924	1
6	4321	1928	1
6	4331	1932	1
6	4343	1936	1
6	4348	1940	1
6	4356	1944	1
6	4365	1948	1
6	4375	1952	1
6	4387	1956	1
6	4392	1960	1
6	4400	1964	1
6	4410	1968	1
6	4422	1972	1
6	4431	1976	1
6	4436	1980	1
6	4444	1984	1
6	4454	1988	1
6	4466	1992	1
6	4475	1996	1
6	4480	2000	1
6	4488	2004	1
6	4498	2008	1
6	4509	2012	1
6	4521	2016	1
6	4526	2020	1
6	4534	2024	1
6	4543	2028	1
6	4553	2032	1
6	4564	2036	1
6	4569	2040	1
6	4579	2044	1
6	4591	2048	1
6	4600	2052	1
6	4609	2056	1
6	4614	2060	1
6	4622	2064	1
6	4632	2068	1
6	4645	2072	1
6	4654	2076	1
6	4659	2080	1
6	4667	2084	1
6	4677	2088	1
6	4688	2092	1
6	4699	2096	1
6	4704	2100	1
6	4714	2104	1
6	4725	2108	1
6	4737	2112	1
6	4746	2116	1
6	4751	2120	1
6	4760	2124	1
6	4771	2128	1
6	4782	2132	1
6	4793	2136	1
6	4798	2140	1
6	4809	2144	1
6	4819	2148	1
6	4829	2152	1
6	4840	2156	1
6	4845	2160	1
6	4853	2164	1
6	4862	2168	1
6	4871	2172	1
6	4880	2176	1
6	4885	2180	1
6	4893	2184	1
6	4902	2188	1
6	4913	2192	1
6	4922	2196	1
6	4927	2200	1
6	4935	2204	1
6	4944	2208	1
6	4955	2212	1
6	4964	2216	1
6	4969	2220	1
6	4977	2224	1
6	4987	2228	1
[...]
8	3380	1504	1
8	3392	1508	1
8	3401	1512	1
8	3410	1516	1
8	3415	1520	1
8	3423	1524	1
8	3433	1528	1
8	3444	1532	1
8	3455	1536	1
8	3460	1540	1
8	3470	1544	1
8	3481	1548	1
8	3492	1552	1
8	3502	1556	1
8	3507	1560	1
8	3516	1564	1
8	3527	1568	1
8	3539	1572	1
8	3549	1576	1
8	3554	1580	1
8	3564	1584	1
8	3576	1588	1
8	3585	1592	1
8	3594	1596	1
8	3599	1600	1
8	3607	1604	1
8	3616	1608	1
8	3625	1612	1
8	3634	1616	1
8	3639	1620	1
8	3648	1624	1
8	3660	1628	1
8	3669	1632	1
8	3679	1636	1
8	3684	1640	1
8	3694	1644	1
8	3705	1648	1
8	3715	1652	1
8	3726	1656	1
8	3731	1660	1
8	3740	1664	1
8	3759	1672	1
8	3770	1676	1
8	3775	1680	1
8	3783	1684	1
8	3792	1688	1
8	3801	1692	1
8	3811	1696	1
8	3816	1700	1
8	3827	1704	1
8	3836	1708	1
8	3845	1712	1
8	3855	1716	1
8	3860	1720	1
8	3870	1724	1
8	3880	1728	1
8	3892	1732	1
8	3901	1736	1
8	3906	1740	1
8	3914	1744	1
8	3923	1748	1
8	3934	1752	1
8	3943	1756	1
8	3948	1760	1
8	3956	1764	1
8	3965	1768	1
8	3974	1772	1
8	3983	1776	1
8	3988	1780	1
8	3997	1784	1
8	4008	1788	1
8	4019	1792	1
8	4030	1796	1
8	4035	1800	1
8	4046	1804	1
8	4055	1808	1
8	4064	1812	1
8	4074	1816	1
8	4079	1820	1
8	4111	1832	1
8	4120	1836	1
8	4125	1840	1
8	4133	1844	1
8	4142	1848	1
8	4152	1852	1
8	4163	1856	1
8	4168	1860	1
8	4177	1864	1
8	4187	1868	1
8	4198	1872	1
8	4215	1880	1
8	4224	1884	1
8	4234	1888	1
8	4244	1892	1
8	4256	1896	1
8	4261	1900	1
8	4269	1904	1
8	4278	1908	1
8	4288	1912	1
8	4301	1916	1
8	4306	1920	1
8	4314	1924	1
8	4323	1928	1
8	4333	1932	1
8	4350	1940	1
8	4358	1944	1
8	4367	1948	1
8	4377	1952	1
8	4389	1956	1
8	4394	1960	1
8	4402	1964	1
8	4412	1968	1
8	4433	1976	1
8	4438	1980	1
8	4446	1984	1
8	4456	1988	1
8	4468	1992	1
8	4477	1996	1
8	4482	2000	1
8	4490	2004	1
8	4500	2008	1
8	4511	2012	1
8	4523	2016	1
8	4528	2020	1
8	4536	2024	1
8	4545	2028	1
8	4555	2032	1
8	4566	2036	1
8	4571	2040	1
8	4602	2052	1
8	4611	2056	1
8	4616	2060	1
8	4624	2064	1
8	4634	2068	1
8	4647	2072	1
8	4656	2076	1
8	4661	2080	1
8	4669	2084	1
8	4679	2088	1
8	4690	2092	1
8	4701	2096	1
8	4706	2100	1
8	4716	2104	1
8	4727	2108	1
8	4739	2112	1
8	4748	2116	1
8	4753	2120	1
8	4762	2124	1
8	4800	2140	1
8	4821	2148	1
8	4842	2156	1
8	4847	2160	1
8	4855	2164	1
8	4864	2168	1
8	4873	2172	1
8	4882	2176	1
8	4887	2180	1
8	4895	2184	1
8	4904	2188	1
8	4915	2192	1
8	4924	2196	1
8	4929	2200	1
8	4937	2204	1
8	4946	2208	1
8	4957	2212	1
8	4966	2216	1
8	4971	2220	1
8	4979	2224	1
8	4989	2228	1
8	5017	2240	1
8	5025	2244	1
8	5034	2248	1
8	5043	2252	1
8	5053	2256	1
8	5058	2260	1
8	5068	2264	1
8	5078	2268	1
8	5089	2272	1
8	5098	2276	1
8	5103	2280	1
8	5111	2284	1
8	5120	2288	1
8	5130	2292	1
8	5140	2296	1
8	5145	2300	1
8	5154	2304	1
8	5165	2308	1
8	5186	2316	1
8	5191	2320	1
8	5199	2324	1
8	5209	2328	1
8	5220	2332	1
8	5232	2336	1
8	5237	2340	1
8	5245	2344	1
8	5254	2348	1
8	5263	2352	1
8	5273	2356	1
8	5278	2360	1
8	5288	2364	1
8	5300	2368	1
8	5309	2372	1
8	5318	2376	1
8	5323	2380	1
8	5331	2384	1
8	5342	2388	1
8	5351	2392	1
8	5361	2396	1
8	5366	2400	1
8	5377	2404	1
8	5387	2408	1
8	5414	2420	1
8	5456	2436	1
8	5461	2440	1
8	5469	2444	1
8	5479	2448	1
8	5491	2452	1
8	5500	2456	1
8	5505	2460	1
8	5513	2464	1
8	5523	2468	1
8	5534	2472	1
8	5545	2476	1
8	5550	2480	1
8	5561	2484	1
8	5570	2488	1
8	5579	2492	1
8	5588	2496	1
8	5593	2500	1
8	5603	2504	1
8	5613	2508	1
8	5624	2512	1
8	5635	2516	1
8	5640	2520	1
8	5649	2524	1
8	5659	2528	1
8	5669	2532	1
8	5679	2536	1
8	5684	2540	1
8	5693	2544	1
8	5703	2548	1
8	5714	2552	1
8	5725	2556	1
8	5730	2560	1
8	5740	2564	1
8	5773	2576	1
8	5778	2580	1
8	5786	2584	1
8	5795	2588	1
8	5804	2592	1
8	5814	2596	1
8	5819	2600	1
8	5839	2608	1
8	5848	2612	1
8	5857	2616	1
8	5862	2620	1
8	5870	2624	1
8	5880	2628	1
8	5908	2640	1
8	5916	2644	1
8	5925	2648	1
8	5935	2652	1
8	5951	2660	1
8	5970	2668	1
8	5997	2680	1
8	6030	2692	1
8	6040	2696	1
8	6045	2700	1
8	6054	2704	1
8	6064	2708	1
8	6074	2712	1
8	6085	2716	1
8	6090	2720	1
8	6098	2724	1
8	6107	2728	1
8	6116	2732	1
8	6125	2736	1
8	6130	2740	1
8	6139	2744	1
8	6149	2748	1
8	6159	2752	1
8	6174	2760	1
8	6184	2764	1
8	6193	2768	1
8	6202	2772	1
8	6212	2776	1
8	6217	2780	1
8	6248	2792	1
8	6257	2796	1
8	6262	2800	1
8	6270	2804	1
8	6279	2808	1
8	6289	2812	1
8	6306	2820	1
8	6314	2824	1
8	6323	2828	1
8	6332	2832	1
8	6342	2836	1
8	6347	2840	1
8	6357	2844	1
8	6369	2848	1
8	6378	2852	1
8	6387	2856	1
8	6392	2860	1
8	6401	2864	1
8	6433	2876	1
8	6438	2880	1
8	6446	2884	1
8	6455	2888	1
8	6464	2892	1
8	6473	2896	1
8	6478	2900	1
8	6487	2904	1
8	6525	2920	1
8	6545	2928	1
8	6554	2932	1
8	6563	2936	1
8	6568	2940	1
8	6577	2944	1
8	6608	2956	1
8	6613	2960	1
8	6661	2980	1
8	6692	2992	1
8	6702	2996	1
8	6707	3000	1
8	6716	3004	1
8	6726	3008	1
8	6737	3012	1
8	6749	3016	1
8	6754	3020	1
8	6762	3024	1
8	6771	3028	1
8	6780	3032	1
8	6789	3036	1
8	6794	3040	1
8	6802	3044	1
8	6812	3048	1
8	6823	3052	1
8	6835	3056	1
8	6840	3060	1
8	6848	3064	1
8	6857	3068	1
8	6866	3072	1
8	6875	3076	1
8	6880	3080	1
8	6889	3084	1
8	6900	3088	1
8	6911	3092	1
8	6922	3096	1
8	6927	3100	1
8	6937	3104	1
8	6947	3108	1
8	6957	3112	1
8	6969	3116	1
8	6974	3120	1
8	6982	3124	1
8	6992	3128	1
8	7003	3132	1
8	7015	3136	1
8	7020	3140	1
8	7028	3144	1
8	7037	3148	1
8	7046	3152	1
8	7055	3156	1
8	7060	3160	1
8	7068	3164	1
8	7078	3168	1
8	7089	3172	1
8	7100	3176	1
8	7105	3180	1
8	7116	3184	1
8	7125	3188	1
8	7134	3192	1
8	7143	3196	1
8	7148	3200	1
8	7156	3204	1
8	7166	3208	1
8	7177	3212	1
8	7188	3216	1
8	7193	3220	1
8	7202	3224	1
8	7212	3228	1
8	7223	3232	1
8	7236	3236	1
8	7241	3240	1
8	7249	3244	1
8	7258	3248	1
8	7267	3252	1
8	7276	3256	1
8	7281	3260	1
8	7289	3264	1
8	7299	3268	1
8	7310	3272	1
8	7321	3276	1
8	7326	3280	1
8	7335	3284	1
8	7344	3288	1
8	7354	3292	1
8	7365	3296	1
8	7370	3300	1
8	7380	3304	1
8	7390	3308	1
8	7400	3312	1
8	7411	3316	1
8	7416	3320	1
8	7425	3324	1
8	7435	3328	1
8	7446	3332	1
8	7457	3336	1
8	7462	3340	1
8	7472	3344	1
8	7483	3348	1
8	7494	3352	1
8	7505	3356	1
8	7510	3360	1
8	7520	3364	1
8	7530	3368	1
8	7539	3372	1
8	7549	3376	1
8	7554	3380	1
8	7564	3384	1
8	7576	3388	1
8	7585	3392	1
8	7594	3396	1
8	7599	3400	1
8	7608	3404	1
8	7619	3408	1
8	7629	3412	1
8	7639	3416	1
8	7644	3420	1
8	7655	3424	1
8	7664	3428	1
8	7673	3432	1
8	7682	3436	1
8	7687	3440	1
8	7696	3444	1
8	7707	3448	1
8	7718	3452	1
8	7730	3456	1
8	7735	3460	1
8	7743	3464	1
8	7752	3468	1
8	7761	3472	1
8	7770	3476	1
8	7775	3480	1
8	7784	3484	1
8	7795	3488	1
8	7805	3492	1
8	7815	3496	1
8	7820	3500	1
8	7831	3504	1
8	7840	3508	1
8	7849	3512	1
8	7858	3516	1
8	7863	3520	1
8	7871	3524	1
8	7880	3528	1
8	7890	3532	1
8	7900	3536	1
8	7905	3540	1
8	7913	3544	1
8	7923	3548	1
8	7934	3552	1
8	7945	3556	1
8	7950	3560	1
8	7960	3564	1
8	7971	3568	1
8	7982	3572	1
8	7993	3576	1
8	7998	3580	1
8	8008	3584	1
8	8019	3588	1
8	8030	3592	1
8	8042	3596	1
8	8047	3600	1
9	63	30	1
9	142	65	1
9	311	140	1
9	322	145	1
9	333	150	1
9	344	155	1
9	412	185	1
9	516	235	1
9	639	290	1
9	650	295	1
9	1154	520	1
9	1165	525	1
9	1176	530	1
9	1248	560	1
9	1259	565	1
9	1270	570	1
9	1402	630	1
9	1577	705	1
9	1885	840	1
9	1918	855	1
9	1933	860	1
9	2120	945	1
9	2184	975	1
9	2199	980	1
9	2210	985	1
9	2221	990	1
9	2232	995	1
9	2256	1005	1
9	2267	1010	1
9	2441	1085	1
9	2487	1105	1
9	2611	1160	1
9	2633	1170	1
9	3743	1665	1
9	4081	1820	1
9	4092	1825	1
9	4201	1875	1
9	4336	1935	1
9	4415	1970	1
9	4573	2040	1
9	4584	2045	1
9	4765	2125	1
9	4776	2130	1
9	4787	2135	1
9	4802	2140	1
9	4824	2150	1
9	4992	2230	1
9	5003	2235	1
9	5168	2310	1
9	5390	2410	1
9	5401	2415	1
9	5416	2420	1
9	5427	2425	1
9	5438	2430	1
9	5743	2565	1
9	5754	2570	1
9	5821	2600	1
9	5883	2630	1
9	5894	2635	1
9	5938	2655	1
9	5953	2660	1
9	5973	2670	1
9	5984	2675	1
9	5999	2680	1
9	6010	2685	1
9	6162	2755	1
9	6219	2780	1
9	6230	2785	1
9	6292	2815	1
9	6404	2865	1
9	6415	2870	1
9	6490	2905	1
9	6501	2910	1
9	6512	2915	1
9	6527	2920	1
9	6580	2945	1
9	6591	2950	1
9	6615	2960	1
9	6626	2965	1
9	6637	2970	1
9	6648	2975	1
9	6663	2980	1
9	6674	2985	1
10	63	30	26
10	142	65	57
10	311	140	128
10	322	145	129
10	333	150	130
10	344	155	123
10	412	185	117
10	516	235	91
10	639	290	142
10	650	295	143
10	1154	520	364
10	1165	525	337
10	1176	530	294
10	1248	560	268
10	1259	565	269
10	1270	570	46
10	1402	630	102
10	1577	705	173
10	1885	840	276
10	1918	855	287
10	1933	860	288
10	2120	945	313
10	2184	975	267
10	2199	980	136
10	2210	985	129
10	2221	990	126
10	2232	995	47
10	2256	1005	29
10	2267	1010	26
10	2441	1085	97
10	2487	1105	113
10	2611	1160	164
10	2633	1170	162
10	3743	1665	653
10	4081	1820	732
10	4092	1825	717
10	4201	1875	711
10	4336	1935	763
10	4415	1970	302
10	4573	2040	216
10	4584	2045	217
10	4765	2125	249
10	4776	2130	194
10	4787	2135	163
10	4802	2140	96
10	4824	2150	102
10	4992	2230	102
10	5003	2235	103
10	5168	2310	174
10	5390	2410	266
10	5401	2415	263
10	5416	2420	188
10	5427	2425	189
10	5438	2430	118
10	5743	2565	153
10	5754	2570	154
10	5821	2600	176
10	5883	2630	202
10	5894	2635	203
10	5938	2655	87
10	5953	2660	88
10	5973	2670	66
10	5984	2675	43
10	5999	2680	44
10	6010	2685	29
10	6162	2755	91
10	6219	2780	108
10	6230	2785	109
10	6292	2815	131
10	6404	2865	177
10	6415	2870	114
10	6490	2905	121
10	6501	2910	122
10	6512	2915	99
10	6527	2920	52
10	6580	2945	73
10	6591	2950	42
10	6615	2960	48
10	6626	2965	49
10	6637	2970	46
10	6648	2975	27
10	6663	2980	28
10	6674	2985	21
11	63	30	1
11	142	65	1
11	311	140	1
11	322	145	1
11	333	150	1
11	344	155	1
11	412	185	1
11	516	235	1
11	639	290	1
11	650	295	1
11	1154	520	1
11	1165	525	1
11	1176	530	1
11	1248	560	1
11	1259	565	1
11	1270	570	1
11	1402	630	1
11	1577	705	1
11	1885	840	1
11	1918	855	1
11	1933	860	1
11	2120	945	1
11	2184	975	1
11	2199	980	1
11	2210	985	1
11	2221	990	1
11	2232	995	1
11	2256	1005	1
11	2267	1010	1
11	2441	1085	1
11	2487	1105	1
11	2611	1160	1
11	2633	1170	1
11	3743	1665	1
11	4081	1820	1
11	4092	1825	1
11	4201	1875	1
11	4336	1935	1
11	4415	1970	1
11	4573	2040	1
11	4584	2045	1
11	4765	2125	1
11	4776	2130	1
11	4787	2135	1
11	4802	2140	1
11	4824	2150	1
11	4992	2230	1
11	5003	2235	1
11	5168	2310	1
11	5390	2410	1
11	5401	2415	1
11	5416	2420	1
11	5427	2425	1
11	5438	2430	1
11	5743	2565	1
11	5754	2570	1
11	5821	2600	1
11	5883	2630	1
11	5894	2635	1
11	5938	2655	1
11	5953	2660	1
11	5973	2670	1
11	5984	2675	1
11	5999	2680	1
11	6010	2685	1
11	6162	2755	1
11	6219	2780	1
11	6230	2785	1
11	6292	2815	1
11	6404	2865	1
11	6415	2870	1
11	6490	2905	1
11	6501	2910	1
11	6512	2915	1
11	6527	2920	1
11	6580	2945	1
11	6591	2950	1
11	6615	2960	1
11	6626	2965	1
11	6637	2970	1
11	6648	2975	1
11	6663	2980	1
11	6674	2985	1
12	107	50	1
12	177	80	1
12	197	90	1
12	208	95	1
12	274	125	1
12	285	130	1
12	379	170	1
12	560	255	1
12	575	260	1
12	586	265	1
12	758	345	1
12	946	430	1
12	979	445	1
12	1761	785	1
12	1964	875	1
12	1979	880	1
12	1990	885	1
12	2054	915	1
12	2348	1045	1
12	2359	1050	1
12	2370	1055	1
12	2476	1100	1
12	2532	1125	1
12	2669	1185	1
12	2680	1190	1
12	2691	1195	1
12	2740	1215	1
12	2958	1315	1
12	2973	1320	1
12	3165	1405	1
12	3176	1410	1
12	3213	1425	1
12	5280	2360	1
12	5291	2365	1
12	5368	2400	1
12	5482	2450	1
12	6021	2690	1
12	6047	2700	1
12	6067	2710	1
12	6142	2745	1
12	6349	2840	1
12	6360	2845	1
12	6709	3000	1
12	6729	3010	1
12	6740	3015	1
12	6815	3050	1
12	6826	3055	1
12	6892	3085	1
12	6903	3090	1
12	6914	3095	1
12	6929	3100	1
12	6940	3105	1
12	6960	3115	1
12	7611	3405	1
12	7622	3410	1
12	7699	3445	1
12	7710	3450	1
12	7721	3455	1
12	7787	3485	1
12	7798	3490	1
12	7822	3500	1
12	7893	3535	1
12	7926	3550	1
12	7937	3555	1
12	7952	3560	1
12	7963	3565	1
12	7974	3570	1
12	7985	3575	1
12	8000	3580	1
12	8011	3585	1
12	8022	3590	1
12	8033	3595	1
13	107	50	46
13	177	80	72
13	197	90	78
13	208	95	79
13	274	125	105
13	285	130	78
13	379	170	86
13	560	255	163
13	575	260	164
13	586	265	137
13	758	345	213
13	946	430	258
13	979	445	189
13	1761	785	521
13	1964	875	607
13	1979	880	532
13	1990	885	453
13	2054	915	467
13	2348	1045	257
13	2359	1050	174
13	2370	1055	171
13	2476	1100	212
13	2532	1125	209
13	2669	1185	137
13	2680	1190	138
13	2691	1195	139
13	2740	1215	111
13	2958	1315	187
13	2973	1320	132
13	3165	1405	213
13	3176	1410	214
13	3213	1425	209
13	5280	2360	1044
13	5291	2365	1041
13	5368	2400	992
13	5482	2450	1038
13	6021	2690	1262
13	6047	2700	336
13	6067	2710	342
13	6142	2745	341
13	6349	2840	388
13	6360	2845	153
13	6709	3000	296
13	6729	3010	298
13	6740	3015	267
13	6815	3050	206
13	6826	3055	207
13	6892	3085	81
13	6903	3090	78
13	6914	3095	79
13	6929	3100	48
13	6940	3105	49
13	6960	3115	27
13	7611	3405	313
13	7622	3410	314
13	7699	3445	341
13	7710	3450	342
13	7721	3455	339
13	7787	3485	77
13	7798	3490	78
13	7822	3500	52
13	7893	3535	83
13	7926	3550	94
13	7937	3555	67
13	7952	3560	68
13	7963	3565	61
13	7974	3570	34
13	7985	3575	23
13	8000	3580	24
13	8011	3585	21
13	8022	3590	22
13	8033	3595	23
14	107	50	1
14	177	80	1
14	197	90	1
14	208	95	1
14	274	125	1
14	285	130	1
14	379	170	1
14	560	255	1
14	575	260	1
14	586	265	1
14	758	345	1
14	946	430	1
14	979	445	1
14	1761	785	1
14	1964	875	1
14	1979	880	1
14	1990	885	1
14	2054	915	1
14	2348	1045	1
14	2359	1050	1
14	2370	1055	1
14	2476	1100	1
14	2532	1125	1
14	2669	1185	1
14	2680	1190	1
14	2691	1195	1
14	2740	1215	1
14	2958	1315	1
14	2973	1320	1
14	3165	1405	1
14	3176	1410	1
14	3213	1425	1
14	5280	2360	1
14	5291	2365	1
14	5368	2400	1
14	5482	2450	1
14	6021	2690	1
14	6047	2700	1
14	6067	2710	1
14	6142	2745	1
14	6349	2840	1
14	6360	2845	1
14	6709	3000	1
14	6729	3010	1
14	6740	3015	1
14	6815	3050	1
14	6826	3055	1
14	6892	3085	1
14	6903	3090	1
14	6914	3095	1
14	6929	3100	1
14	6940	3105	1
14	6960	3115	1
14	7611	3405	1
14	7622	3410	1
14	7699	3445	1
14	7710	3450	1
14	7721	3455	1
14	7787	3485	1
14	7798	3490	1
14	7822	3500	1
14	7893	3535	1
14	7926	3550	1
14	7937	3555	1
14	7952	3560	1
14	7963	3565	1
14	7974	3570	1
14	7985	3575	1
14	8000	3580	1
14	8011	3585	1
14	8022	3590	1
14	8033	3595	1
15	793	360	1
15	837	380	1
15	848	385	1
15	1117	505	1
15	1128	510	1
15	1213	545	1
15	1358	610	1
15	1413	635	1
15	1476	660	1
15	1630	730	1
15	1641	735	1
15	1665	745	1
15	1907	850	1
15	2576	1145	1
15	2784	1235	1
15	2903	1290	1
15	2914	1295	1
15	2995	1330	1
15	3006	1335	1
15	3075	1365	1
15	3086	1370	1
15	3097	1375	1
15	3121	1385	1
15	3187	1415	1
15	3202	1420	1
15	3224	1430	1
15	3372	1500	1
15	3383	1505	1
15	3436	1530	1
15	3447	1535	1
15	3462	1540	1
15	3473	1545	1
15	3484	1550	1
15	3495	1555	1
15	3519	1565	1
15	3686	1640	1
15	3697	1645	1
15	3708	1650	1
15	3862	1720	1
15	3873	1725	1
15	4022	1795	1
15	4037	1800	1
15	4155	1855	1
15	4170	1860	1
15	4190	1870	1
15	4291	1915	1
15	4380	1955	1
15	4637	2070	1
15	4682	2090	1
15	4693	2095	1
15	4708	2100	1
15	4719	2105	1
15	4730	2110	1
15	5060	2260	1
15	5071	2265	1
15	5133	2295	1
15	5157	2305	1
15	5212	2330	1
15	5223	2335	1
15	5526	2470	1
15	5537	2475	1
15	5552	2480	1
15	5616	2510	1
15	5627	2515	1
15	5642	2520	1
15	5662	2530	1
15	5686	2540	1
15	5706	2550	1
15	5717	2555	1
15	5732	2560	1
15	6995	3130	1
15	7006	3135	1
15	7081	3170	1
15	7092	3175	1
15	7107	3180	1
15	7169	3210	1
15	7180	3215	1
15	7195	3220	1
15	7215	3230	1
15	7226	3235	1
15	7302	3270	1
15	7313	3275	1
15	7328	3280	1
15	7357	3295	1
15	7372	3300	1
15	7383	3305	1
15	7403	3315	1
15	7418	3320	1
15	7438	3330	1
15	7449	3335	1
15	7464	3340	1
15	7475	3345	1
15	7486	3350	1
15	7497	3355	1
15	7512	3360	1
15	7523	3365	1
15	7556	3380	1
15	7567	3385	1
15	7646	3420	1
16	793	360	356
16	837	380	372
16	848	385	373
16	1117	505	489
16	1128	510	490
16	1213	545	181
16	1358	610	226
16	1413	635	247
16	1476	660	152
16	1630	730	218
16	1641	735	187
16	1665	745	133
16	1907	850	214
16	2576	1145	481
16	2784	1235	503
16	2903	1290	554
16	2914	1295	547
16	2995	1330	478
16	3006	1335	187
16	3075	1365	129
16	3086	1370	78
16	3097	1375	79
16	3121	1385	53
16	3187	1415	79
16	3202	1420	52
16	3224	1430	58
16	3372	1500	124
16	3383	1505	117
16	3436	1530	114
16	3447	1535	111
16	3462	1540	108
16	3473	1545	41
16	3484	1550	42
16	3495	1555	23
16	3519	1565	29
16	3686	1640	96
16	3697	1645	97
16	3708	1650	98
16	3862	1720	164
16	3873	1725	157
16	4022	1795	151
16	4037	1800	152
16	4155	1855	203
16	4170	1860	136
16	4190	1870	142
16	4291	1915	119
16	4380	1955	151
16	4637	2070	214
16	4682	2090	226
16	4693	2095	223
16	4708	2100	184
16	4719	2105	149
16	4730	2110	38
16	5060	2260	168
16	5071	2265	169
16	5133	2295	191
16	5157	2305	197
16	5212	2330	218
16	5223	2335	71
16	5526	2470	202
16	5537	2475	179
16	5552	2480	172
16	5616	2510	178
16	5627	2515	179
16	5642	2520	48
16	5662	2530	54
16	5686	2540	56
16	5706	2550	38
16	5717	2555	39
16	5732	2560	36
16	6995	3130	598
16	7006	3135	591
16	7081	3170	618
16	7092	3175	619
16	7107	3180	616
16	7169	3210	78
16	7180	3215	79
16	7195	3220	48
16	7215	3230	54
16	7226	3235	51
16	7302	3270	58
16	7313	3275	59
16	7328	3280	56
16	7357	3295	63
16	7372	3300	64
16	7383	3305	33
16	7403	3315	39
16	7418	3320	36
16	7438	3330	34
16	7449	3335	31
16	7464	3340	32
16	7475	3345	29
16	7486	3350	26
16	7497	3355	23
16	7512	3360	24
16	7523	3365	21
16	7556	3380	32
16	7567	3385	33
16	7646	3420	64
17	793	360	1
17	837	380	1
17	848	385	1
17	1117	505	1
17	1128	510	1
17	1213	545	1
17	1358	610	1
17	1413	635	1
17	1476	660	1
17	1630	730	1
17	1641	735	1
17	1665	745	1
17	1907	850	1
17	2576	1145	1
17	2784	1235	1
17	2903	1290	1
17	2914	1295	1
17	2995	1330	1
17	3006	1335	1
17	3075	1365	1
17	3086	1370	1
17	3097	1375	1
17	3121	1385	1
17	3187	1415	1
17	3202	1420	1
17	3224	1430	1
17	3372	1500	1
17	3383	1505	1
17	3436	1530	1
17	3447	1535	1
17	3462	1540	1
17	3473	1545	1
17	3484	1550	1
17	3495	1555	1
17	3519	1565	1
17	3686	1640	1
17	3697	1645	1
17	3708	1650	1
17	3862	1720	1
17	3873	1725	1
17	4022	1795	1
17	4037	1800	1
17	4155	1855	1
17	4170	1860	1
17	4190	1870	1
17	4291	1915	1
17	4380	1955	1
17	4637	2070	1
17	4682	2090	1
17	4693	2095	1
17	4708	2100	1
17	4719	2105	1
17	4730	2110	1
17	5060	2260	1
17	5071	2265	1
17	5133	2295	1
17	5157	2305	1
17	5212	2330	1
17	5223	2335	1
17	5526	2470	1
17	5537	2475	1
17	5552	2480	1
17	5616	2510	1
17	5627	2515	1
17	5642	2520	1
17	5662	2530	1
17	5686	2540	1
17	5706	2550	1
17	5717	2555	1
17	5732	2560	1
17	6995	3130	1
17	7006	3135	1
17	7081	3170	1
17	7092	3175	1
17	7107	3180	1
17	7169	3210	1
17	7180	3215	1
17	7195	3220	1
17	7215	3230	1
17	7226	3235	1
17	7302	3270	1
17	7313	3275	1
17	7328	3280	1
17	7357	3295	1
17	7372	3300	1
17	7383	3305	1
17	7403	3315	1
17	7418	3320	1
17	7438	3330	1
17	7449	3335	1
17	7464	3340	1
17	7475	3345	1
17	7486	3350	1
17	7497	3355	1
17	7512	3360	1
17	7523	3365	1
17	7556	3380	1
17	7567	3385	1
17	7646	3420	1
18	924	420	1
18	1001	455	1
18	1016	460	1
18	1027	465	1
18	1038	470	1
18	1049	475	1
18	1106	500	1
18	1202	540	1
18	1439	645	1
18	1450	650	1
18	1498	670	1
18	1509	675	1
18	1524	680	1
18	1687	755	1
18	1702	760	1
18	1713	765	1
18	1724	770	1
18	1735	775	1
18	1796	800	1
18	1807	805	1
18	1818	810	1
18	2311	1030	1
18	2322	1035	1
18	2385	1060	1
18	2396	1065	1
18	2622	1165	1
18	2718	1205	1
18	2729	1210	1
18	3530	1570	1
18	3556	1580	1
18	3567	1585	1
18	3651	1625	1
18	3818	1700	1
18	4000	1785	1
18	4011	1790	1
18	4227	1885	1
18	4247	1895	1
18	4459	1990	1
18	4503	2010	1
18	4514	2015	1
18	4558	2035	1
19	924	420	416
19	1001	455	447
19	1016	460	448
19	1027	465	449
19	1038	470	450
19	1049	475	51
19	1106	500	44
19	1202	540	76
19	1439	645	177
19	1450	650	178
19	1498	670	194
19	1509	675	171
19	1524	680	136
19	1687	755	107
19	1702	760	108
19	1713	765	93
19	1724	770	94
19	1735	775	91
19	1796	800	44
19	1807	805	41
19	1818	810	42
19	2311	1030	258
19	2322	1035	259
19	2385	1060	256
19	2396	1065	257
19	2622	1165	353
19	2718	1205	173
19	2729	1210	174
19	3530	1570	506
19	3556	1580	512
19	3567	1585	417
19	3651	1625	417
19	3818	1700	488
19	4000	1785	213
19	4011	1790	206
19	4227	1885	297
19	4247	1895	267
19	4459	1990	286
19	4503	2010	222
19	4514	2015	223
19	4558	2035	147
20	924	420	1
20	1001	455	1
20	1016	460	1
20	1027	465	1
20	1038	470	1
20	1049	475	1
20	1106	500	1
20	1202	540	1
20	1439	645	1
20	1450	650	1
20	1498	670	1
20	1509	675	1
20	1524	680	1
20	1687	755	1
20	1702	760	1
20	1713	765	1
20	1724	770	1
20	1735	775	1
20	1796	800	1
20	1807	805	1
20	1818	810	1
20	2311	1030	1
20	2322	1035	1
20	2385	1060	1
20	2396	1065	1
20	2622	1165	1
20	2718	1205	1
20	2729	1210	1
20	3530	1570	1
20	3556	1580	1
20	3567	1585	1
20	3651	1625	1
20	3818	1700	1
20	4000	1785	1
20	4011	1790	1
20	4227	1885	1
20	4247	1895	1
20	4459	1990	1
20	4503	2010	1
20	4514	2015	1
20	4558	2035	1

