version 2
run FourthVerification-10-20201214-15:14:42-220658
attr configname FourthVerification
attr datetime 20201214-15:14:42
attr experiment FourthVerification
attr inifile omnetpp.ini
attr iterationvars "$0=4, $1=0.6"
attr iterationvarsf 4,0.6-
attr measurement "$0=4, $1=0.6"
attr network slottedNetwork
attr processid 220658
attr repetition 0
attr replication #0
attr resultdir results
attr runnumber 10
attr seedset 10
param **.numTransmitters 4
param **.numChannels 1
param **.bufferSize 5
param **.sendProbability 0.6
param **.expMean 4s
param **.timeSlotSize 5s
param **.thresh 20s
param **.deterministicInterarrivalTime true
param **.numTransmitters 1
param **.numChannels 1
param **.bufferSize 5
param **.sendProbability 1
param **.expMean 5s
param **.timeSlotSize 5s
param **.thresh 20s
param **.deterministicInterarrivalTime false

vector 0 slottedNetwork.transmitters[0] numPacketCreated:vector ETV
attr source numPacketCreatedSignal
vector 1 slottedNetwork.transmitters[1] numPacketCreated:vector ETV
attr source numPacketCreatedSignal
vector 2 slottedNetwork.transmitters[2] numPacketCreated:vector ETV
attr source numPacketCreatedSignal
vector 3 slottedNetwork.transmitters[3] numPacketCreated:vector ETV
attr source numPacketCreatedSignal
vector 4 slottedNetwork.ch throughput:vector ETV
attr source throughputSignal
vector 5 slottedNetwork.transmitters[0] numPacketDiscarded:vector ETV
attr source numPacketDiscardedSignal
vector 6 slottedNetwork.transmitters[1] numPacketDiscarded:vector ETV
attr source numPacketDiscardedSignal
vector 7 slottedNetwork.transmitters[2] numPacketDiscarded:vector ETV
attr source numPacketDiscardedSignal
vector 8 slottedNetwork.transmitters[3] numPacketDiscarded:vector ETV
attr source numPacketDiscardedSignal
vector 9 slottedNetwork.receivers[3] numPacketReceived:vector ETV
attr source numPacketReceivedSignal
vector 10 slottedNetwork.receivers[3] responseTime:vector ETV
attr source responseTimeSignal
vector 11 slottedNetwork.receivers[3] threshold:vector ETV
attr source thresholdSignal
vector 12 slottedNetwork.receivers[1] numPacketReceived:vector ETV
attr source numPacketReceivedSignal
vector 13 slottedNetwork.receivers[1] responseTime:vector ETV
attr source responseTimeSignal
vector 14 slottedNetwork.receivers[1] threshold:vector ETV
attr source thresholdSignal
vector 15 slottedNetwork.receivers[0] numPacketReceived:vector ETV
attr source numPacketReceivedSignal
vector 16 slottedNetwork.receivers[0] responseTime:vector ETV
attr source responseTimeSignal
vector 17 slottedNetwork.receivers[0] threshold:vector ETV
attr source thresholdSignal
vector 18 slottedNetwork.receivers[2] numPacketReceived:vector ETV
attr source numPacketReceivedSignal
vector 19 slottedNetwork.receivers[2] responseTime:vector ETV
attr source responseTimeSignal
vector 20 slottedNetwork.receivers[2] threshold:vector ETV
attr source thresholdSignal
0	1	4	1
0	13	8	1
0	22	12	1
0	31	16	1
0	36	20	1
0	45	24	1
0	56	28	1
0	68	32	1
0	78	36	1
0	83	40	1
0	93	44	1
0	104	48	1
0	114	52	1
0	124	56	1
0	129	60	1
0	140	64	1
0	150	68	1
0	161	72	1
0	173	76	1
0	178	80	1
0	187	84	1
0	198	88	1
0	208	92	1
0	218	96	1
0	223	100	1
0	235	104	1
0	244	108	1
0	253	112	1
0	263	116	1
0	268	120	1
0	278	124	1
0	289	128	1
0	302	132	1
0	311	136	1
0	316	140	1
0	325	144	1
0	335	148	1
0	345	152	1
0	357	156	1
0	362	160	1
0	371	164	1
0	381	168	1
0	392	172	1
0	402	176	1
0	407	180	1
0	417	184	1
0	428	188	1
0	441	192	1
0	450	196	1
0	455	200	1
0	463	204	1
0	472	208	1
0	481	212	1
0	490	216	1
0	495	220	1
0	504	224	1
0	516	228	1
0	525	232	1
0	536	236	1
0	541	240	1
0	550	244	1
0	561	248	1
0	572	252	1
0	583	256	1
0	588	260	1
0	598	264	1
0	611	268	1
0	620	272	1
0	629	276	1
0	634	280	1
0	642	284	1
0	651	288	1
0	660	292	1
0	671	296	1
0	676	300	1
0	684	304	1
0	694	308	1
0	705	312	1
0	716	316	1
0	721	320	1
0	731	324	1
0	742	328	1
0	753	332	1
0	765	336	1
0	770	340	1
0	778	344	1
0	787	348	1
0	797	352	1
0	809	356	1
0	814	360	1
0	822	364	1
0	831	368	1
0	841	372	1
0	853	376	1
0	858	380	1
0	866	384	1
0	875	388	1
0	884	392	1
0	894	396	1
0	899	400	1
0	909	404	1
0	920	408	1
0	931	412	1
0	943	416	1
0	948	420	1
0	956	424	1
0	965	428	1
0	974	432	1
0	985	436	1
0	990	440	1
0	998	444	1
0	1007	448	1
0	1016	452	1
0	1025	456	1
0	1030	460	1
0	1040	464	1
0	1049	468	1
0	1058	472	1
0	1067	476	1
0	1072	480	1
0	1080	484	1
0	1091	488	1
0	1100	492	1
0	1109	496	1
0	1114	500	1
0	1122	504	1
0	1131	508	1
0	1140	512	1
0	1150	516	1
0	1155	520	1
0	1165	524	1
0	1177	528	1
0	1187	532	1
0	1198	536	1
0	1203	540	1
0	1214	544	1
0	1223	548	1
0	1232	552	1
0	1241	556	1
0	1246	560	1
0	1255	564	1
0	1267	568	1
0	1276	572	1
0	1285	576	1
0	1290	580	1
0	1298	584	1
0	1307	588	1
0	1316	592	1
0	1325	596	1
0	1330	600	1
0	1339	604	1
0	1350	608	1
0	1361	612	1
0	1372	616	1
0	1377	620	1
0	1388	624	1
0	1398	628	1
0	1408	632	1
0	1417	636	1
0	1422	640	1
0	1431	644	1
0	1441	648	1
0	1452	652	1
0	1461	656	1
0	1466	660	1
0	1474	664	1
0	1483	668	1
0	1493	672	1
0	1504	676	1
0	1509	680	1
0	1520	684	1
0	1529	688	1
0	1538	692	1
0	1548	696	1
0	1553	700	1
0	1562	704	1
0	1573	708	1
0	1583	712	1
0	1594	716	1
0	1599	720	1
0	1610	724	1
0	1619	728	1
0	1628	732	1
0	1637	736	1
0	1642	740	1
0	1650	744	1
0	1661	748	1
0	1671	752	1
0	1682	756	1
0	1687	760	1
0	1696	764	1
0	1706	768	1
0	1716	772	1
0	1726	776	1
0	1731	780	1
0	1740	784	1
0	1751	788	1
0	1760	792	1
0	1769	796	1
0	1774	800	1
0	1782	804	1
0	1792	808	1
0	1803	812	1
0	1815	816	1
0	1820	820	1
0	1828	824	1
0	1837	828	1
0	1846	832	1
0	1856	836	1
0	1861	840	1
0	1872	844	1
0	1881	848	1
0	1891	852	1
0	1903	856	1
0	1908	860	1
0	1916	864	1
0	1925	868	1
0	1934	872	1
0	1943	876	1
0	1948	880	1
0	1956	884	1
0	1966	888	1
0	1978	892	1
0	1987	896	1
0	1992	900	1
0	2000	904	1
0	2010	908	1
0	2020	912	1
0	2030	916	1
0	2035	920	1
0	2044	924	1
0	2055	928	1
0	2064	932	1
0	2073	936	1
0	2078	940	1
0	2086	944	1
0	2096	948	1
0	2106	952	1
0	2116	956	1
0	2121	960	1
0	2132	964	1
0	2142	968	1
0	2152	972	1
0	2164	976	1
0	2169	980	1
0	2177	984	1
0	2186	988	1
0	2195	992	1
0	2205	996	1
0	2210	1000	1
0	2221	1004	1
0	2230	1008	1
0	2239	1012	1
0	2249	1016	1
0	2254	1020	1
0	2264	1024	1
0	2275	1028	1
0	2288	1032	1
0	2297	1036	1
0	2302	1040	1
0	2310	1044	1
0	2319	1048	1
0	2329	1052	1
0	2341	1056	1
0	2346	1060	1
0	2354	1064	1
0	2363	1068	1
0	2373	1072	1
0	2384	1076	1
0	2389	1080	1
0	2400	1084	1
0	2409	1088	1
0	2420	1092	1
0	2429	1096	1
0	2434	1100	1
0	2443	1104	1
0	2454	1108	1
0	2465	1112	1
0	2475	1116	1
0	2480	1120	1
0	2489	1124	1
0	2500	1128	1
0	2510	1132	1
0	2520	1136	1
0	2525	1140	1
0	2535	1144	1
0	2547	1148	1
0	2556	1152	1
0	2565	1156	1
0	2570	1160	1
0	2578	1164	1
0	2587	1168	1
0	2596	1172	1
0	2606	1176	1
0	2611	1180	1
0	2622	1184	1
0	2631	1188	1
0	2640	1192	1
0	2650	1196	1
0	2655	1200	1
0	2665	1204	1
0	2675	1208	1
0	2684	1212	1
0	2693	1216	1
0	2698	1220	1
0	2706	1224	1
0	2716	1228	1
0	2727	1232	1
0	2739	1236	1
0	2744	1240	1
0	2752	1244	1
0	2761	1248	1
0	2770	1252	1
0	2779	1256	1
0	2784	1260	1
0	2792	1264	1
0	2802	1268	1
0	2813	1272	1
0	2825	1276	1
0	2830	1280	1
0	2838	1284	1
0	2847	1288	1
0	2857	1292	1
0	2868	1296	1
0	2873	1300	1
0	2882	1304	1
0	2893	1308	1
0	2902	1312	1
0	2911	1316	1
0	2916	1320	1
0	2924	1324	1
0	2933	1328	1
0	2942	1332	1
0	2952	1336	1
0	2957	1340	1
0	2966	1344	1
0	2976	1348	1
0	2987	1352	1
0	2998	1356	1
0	3003	1360	1
0	3013	1364	1
0	3025	1368	1
0	3034	1372	1
0	3043	1376	1
0	3048	1380	1
0	3057	1384	1
0	3067	1388	1
0	3079	1392	1
0	3088	1396	1
0	3093	1400	1
0	3101	1404	1
0	3110	1408	1
0	3119	1412	1
0	3128	1416	1
0	3133	1420	1
0	3141	1424	1
0	3151	1428	1
0	3161	1432	1
0	3171	1436	1
0	3176	1440	1
0	3188	1444	1
0	3197	1448	1
0	3206	1452	1
0	3216	1456	1
0	3221	1460	1
0	3231	1464	1
0	3241	1468	1
0	3252	1472	1
0	3261	1476	1
0	3266	1480	1
0	3274	1484	1
0	3283	1488	1
0	3293	1492	1
0	3304	1496	1
0	3309	1500	1
0	3318	1504	1
0	3328	1508	1
0	3339	1512	1
0	3349	1516	1
0	3354	1520	1
0	3364	1524	1
0	3373	1528	1
0	3383	1532	1
0	3394	1536	1
0	3399	1540	1
0	3409	1544	1
0	3420	1548	1
0	3432	1552	1
0	3441	1556	1
0	3446	1560	1
0	3454	1564	1
0	3463	1568	1
0	3472	1572	1
0	3482	1576	1
0	3487	1580	1
0	3498	1584	1
0	3507	1588	1
0	3516	1592	1
0	3525	1596	1
0	3530	1600	1
0	3538	1604	1
0	3548	1608	1
0	3560	1612	1
0	3569	1616	1
0	3574	1620	1
0	3582	1624	1
0	3591	1628	1
0	3600	1632	1
0	3609	1636	1
0	3614	1640	1
0	3623	1644	1
0	3634	1648	1
0	3644	1652	1
0	3654	1656	1
0	3659	1660	1
0	3668	1664	1
0	3678	1668	1
0	3689	1672	1
0	3702	1676	1
0	3707	1680	1
0	3715	1684	1
0	3724	1688	1
0	3733	1692	1
0	3742	1696	1
0	3747	1700	1
0	3755	1704	1
0	3766	1708	1
0	3775	1712	1
0	3784	1716	1
0	3789	1720	1
0	3797	1724	1
0	3806	1728	1
0	3815	1732	1
0	3824	1736	1
0	3829	1740	1
0	3837	1744	1
0	3847	1748	1
0	3858	1752	1
0	3869	1756	1
0	3874	1760	1
0	3884	1764	1
0	3895	1768	1
0	3905	1772	1
0	3916	1776	1
0	3921	1780	1
0	3929	1784	1
0	3938	1788	1
0	3949	1792	1
0	3958	1796	1
0	3963	1800	1
0	3971	1804	1
0	3980	1808	1
0	3989	1812	1
0	3999	1816	1
0	4004	1820	1
0	4015	1824	1
0	4024	1828	1
0	4033	1832	1
0	4042	1836	1
0	4047	1840	1
0	4055	1844	1
0	4064	1848	1
0	4074	1852	1
0	4085	1856	1
0	4090	1860	1
0	4100	1864	1
0	4111	1868	1
0	4122	1872	1
0	4134	1876	1
0	4139	1880	1
0	4147	1884	1
0	4156	1888	1
0	4165	1892	1
0	4175	1896	1
0	4180	1900	1
0	4190	1904	1
0	4201	1908	1
0	4212	1912	1
0	4224	1916	1
0	4229	1920	1
0	4237	1924	1
0	4246	1928	1
0	4255	1932	1
0	4265	1936	1
0	4270	1940	1
0	4280	1944	1
0	4292	1948	1
0	4301	1952	1
0	4310	1956	1
0	4315	1960	1
0	4324	1964	1
0	4335	1968	1
0	4346	1972	1
0	4356	1976	1
0	4361	1980	1
0	4371	1984	1
0	4380	1988	1
0	4389	1992	1
0	4398	1996	1
0	4403	2000	1
0	4412	2004	1
0	4423	2008	1
0	4434	2012	1
0	4444	2016	1
0	4449	2020	1
0	4459	2024	1
0	4468	2028	1
0	4477	2032	1
0	4486	2036	1
0	4491	2040	1
0	4500	2044	1
0	4510	2048	1
0	4521	2052	1
0	4530	2056	1
0	4535	2060	1
0	4543	2064	1
0	4552	2068	1
0	4561	2072	1
0	4570	2076	1
0	4575	2080	1
0	4583	2084	1
0	4594	2088	1
0	4603	2092	1
0	4612	2096	1
0	4617	2100	1
0	4625	2104	1
0	4634	2108	1
0	4644	2112	1
0	4655	2116	1
0	4660	2120	1
0	4670	2124	1
0	4680	2128	1
0	4690	2132	1
0	4700	2136	1
0	4705	2140	1
0	4714	2144	1
0	4724	2148	1
0	4734	2152	1
0	4745	2156	1
0	4750	2160	1
0	4759	2164	1
0	4769	2168	1
0	4779	2172	1
0	4789	2176	1
0	4794	2180	1
0	4803	2184	1
0	4814	2188	1
0	4823	2192	1
0	4832	2196	1
0	4837	2200	1
0	4845	2204	1
0	4854	2208	1
0	4865	2212	1
0	4874	2216	1
0	4879	2220	1
0	4887	2224	1
0	4896	2228	1
0	4905	2232	1
0	4914	2236	1
0	4919	2240	1
0	4927	2244	1
0	4937	2248	1
0	4947	2252	1
0	4957	2256	1
0	4962	2260	1
0	4971	2264	1
0	4981	2268	1
0	4992	2272	1
0	5002	2276	1
0	5007	2280	1
0	5015	2284	1
0	5025	2288	1
0	5036	2292	1
0	5048	2296	1
0	5053	2300	1
0	5061	2304	1
0	5070	2308	1
0	5079	2312	1
0	5088	2316	1
0	5093	2320	1
0	5102	2324	1
0	5112	2328	1
0	5122	2332	1
0	5132	2336	1
0	5137	2340	1
0	5146	2344	1
0	5156	2348	1
0	5166	2352	1
0	5176	2356	1
0	5181	2360	1
0	5190	2364	1
0	5200	2368	1
0	5209	2372	1
0	5219	2376	1
0	5224	2380	1
0	5233	2384	1
0	5242	2388	1
0	5252	2392	1
0	5263	2396	1
0	5268	2400	1
0	5278	2404	1
0	5289	2408	1
0	5300	2412	1
0	5311	2416	1
0	5316	2420	1
0	5325	2424	1
0	5335	2428	1
0	5345	2432	1
0	5355	2436	1
0	5360	2440	1
0	5370	2444	1
0	5381	2448	1
0	5392	2452	1
0	5402	2456	1
0	5407	2460	1
0	5416	2464	1
0	5427	2468	1
0	5439	2472	1
0	5448	2476	1
0	5453	2480	1
0	5461	2484	1
0	5470	2488	1
0	5480	2492	1
0	5491	2496	1
0	5496	2500	1
0	5506	2504	1
0	5517	2508	1
0	5528	2512	1
0	5540	2516	1
0	5545	2520	1
0	5553	2524	1
0	5562	2528	1
0	5572	2532	1
0	5583	2536	1
0	5588	2540	1
0	5598	2544	1
0	5610	2548	1
0	5620	2552	1
0	5631	2556	1
0	5636	2560	1
0	5646	2564	1
0	5657	2568	1
0	5668	2572	1
0	5679	2576	1
0	5684	2580	1
0	5693	2584	1
0	5704	2588	1
0	5713	2592	1
0	5722	2596	1
0	5727	2600	1
0	5735	2604	1
0	5745	2608	1
0	5755	2612	1
0	5764	2616	1
0	5769	2620	1
0	5778	2624	1
0	5789	2628	1
0	5800	2632	1
0	5810	2636	1
0	5815	2640	1
0	5824	2644	1
0	5836	2648	1
0	5845	2652	1
0	5854	2656	1
0	5859	2660	1
0	5867	2664	1
0	5876	2668	1
0	5885	2672	1
0	5896	2676	1
0	5901	2680	1
0	5910	2684	1
0	5920	2688	1
0	5930	2692	1
0	5941	2696	1
0	5946	2700	1
0	5957	2704	1
0	5966	2708	1
0	5975	2712	1
0	5984	2716	1
0	5989	2720	1
0	5998	2724	1
0	6010	2728	1
0	6019	2732	1
0	6028	2736	1
0	6033	2740	1
0	6041	2744	1
0	6052	2748	1
0	6061	2752	1
0	6070	2756	1
0	6075	2760	1
0	6083	2764	1
0	6092	2768	1
0	6102	2772	1
0	6114	2776	1
0	6119	2780	1
0	6127	2784	1
0	6136	2788	1
0	6145	2792	1
0	6154	2796	1
0	6159	2800	1
0	6168	2804	1
0	6179	2808	1
0	6190	2812	1
0	6201	2816	1
0	6206	2820	1
0	6215	2824	1
0	6224	2828	1
0	6233	2832	1
0	6242	2836	1
0	6247	2840	1
0	6256	2844	1
0	6266	2848	1
0	6276	2852	1
0	6288	2856	1
0	6293	2860	1
0	6301	2864	1
0	6310	2868	1
0	6319	2872	1
0	6328	2876	1
0	6333	2880	1
0	6342	2884	1
0	6352	2888	1
0	6363	2892	1
0	6372	2896	1
0	6377	2900	1
0	6385	2904	1
0	6394	2908	1
0	6403	2912	1
0	6412	2916	1
0	6417	2920	1
0	6425	2924	1
0	6436	2928	1
0	6445	2932	1
0	6454	2936	1
0	6459	2940	1
0	6467	2944	1
0	6477	2948	1
0	6488	2952	1
0	6498	2956	1
0	6503	2960	1
0	6513	2964	1
0	6523	2968	1
0	6534	2972	1
0	6544	2976	1
0	6549	2980	1
0	6558	2984	1
0	6568	2988	1
0	6578	2992	1
0	6590	2996	1
0	6595	3000	1
0	6603	3004	1
0	6612	3008	1
0	6621	3012	1
0	6630	3016	1
0	6635	3020	1
0	6644	3024	1
0	6656	3028	1
0	6665	3032	1
0	6674	3036	1
0	6679	3040	1
0	6687	3044	1
0	6697	3048	1
0	6707	3052	1
0	6717	3056	1
0	6722	3060	1
0	6733	3064	1
0	6742	3068	1
0	6751	3072	1
0	6760	3076	1
0	6765	3080	1
0	6774	3084	1
0	6785	3088	1
0	6797	3092	1
0	6806	3096	1
0	6811	3100	1
0	6819	3104	1
0	6828	3108	1
0	6837	3112	1
0	6847	3116	1
0	6852	3120	1
0	6863	3124	1
0	6872	3128	1
0	6881	3132	1
0	6890	3136	1
0	6895	3140	1
0	6903	3144	1
0	6913	3148	1
0	6925	3152	1
0	6934	3156	1
0	6939	3160	1
0	6947	3164	1
0	6956	3168	1
0	6966	3172	1
0	6977	3176	1
0	6982	3180	1
0	6992	3184	1
0	7002	3188	1
0	7013	3192	1
0	7022	3196	1
0	7027	3200	1
0	7035	3204	1
0	7044	3208	1
0	7053	3212	1
0	7063	3216	1
0	7068	3220	1
0	7079	3224	1
0	7088	3228	1
0	7097	3232	1
0	7107	3236	1
0	7112	3240	1
0	7122	3244	1
0	7134	3248	1
0	7143	3252	1
0	7152	3256	1
0	7157	3260	1
0	7165	3264	1
0	7176	3268	1
0	7185	3272	1
0	7194	3276	1
0	7199	3280	1
0	7208	3284	1
0	7219	3288	1
0	7230	3292	1
0	7240	3296	1
0	7245	3300	1
0	7253	3304	1
0	7263	3308	1
0	7273	3312	1
0	7283	3316	1
0	7288	3320	1
0	7297	3324	1
0	7306	3328	1
0	7316	3332	1
0	7328	3336	1
0	7333	3340	1
0	7342	3344	1
0	7353	3348	1
0	7363	3352	1
0	7372	3356	1
0	7377	3360	1
0	7387	3364	1
0	7397	3368	1
0	7408	3372	1
0	7419	3376	1
0	7424	3380	1
0	7435	3384	1
0	7445	3388	1
0	7456	3392	1
0	7466	3396	1
0	7471	3400	1
0	7480	3404	1
0	7491	3408	1
0	7501	3412	1
0	7512	3416	1
0	7517	3420	1
0	7525	3424	1
0	7534	3428	1
0	7544	3432	1
0	7554	3436	1
0	7559	3440	1
0	7568	3444	1
0	7580	3448	1
0	7589	3452	1
0	7598	3456	1
0	7603	3460	1
0	7611	3464	1
0	7621	3468	1
0	7632	3472	1
0	7643	3476	1
0	7648	3480	1
0	7658	3484	1
0	7668	3488	1
0	7678	3492	1
0	7690	3496	1
0	7695	3500	1
0	7703	3504	1
0	7713	3508	1
0	7724	3512	1
0	7735	3516	1
0	7740	3520	1
0	7750	3524	1
0	7761	3528	1
0	7773	3532	1
0	7782	3536	1
0	7787	3540	1
0	7796	3544	1
0	7806	3548	1
0	7817	3552	1
0	7827	3556	1
0	7832	3560	1
0	7841	3564	1
0	7851	3568	1
0	7862	3572	1
0	7873	3576	1
0	7878	3580	1
0	7887	3584	1
0	7896	3588	1
0	7907	3592	1
0	7916	3596	1
0	7921	3600	1
1	2	4	1
1	14	8	1
1	23	12	1
1	32	16	1
1	37	20	1
1	46	24	1
1	57	28	1
1	69	32	1
1	79	36	1
1	84	40	1
1	94	44	1
1	105	48	1
1	115	52	1
1	125	56	1
1	130	60	1
1	141	64	1
1	151	68	1
1	162	72	1
1	174	76	1
1	179	80	1
1	188	84	1
1	199	88	1
1	209	92	1
1	219	96	1
1	224	100	1
1	236	104	1
1	245	108	1
1	254	112	1
1	264	116	1
1	269	120	1
1	279	124	1
1	290	128	1
1	303	132	1
1	312	136	1
1	317	140	1
1	326	144	1
1	336	148	1
1	346	152	1
1	358	156	1
1	363	160	1
1	372	164	1
1	382	168	1
1	393	172	1
1	403	176	1
1	408	180	1
1	418	184	1
1	429	188	1
1	442	192	1
1	451	196	1
1	456	200	1
1	464	204	1
1	473	208	1
1	482	212	1
1	491	216	1
1	496	220	1
1	505	224	1
1	517	228	1
1	526	232	1
1	537	236	1
1	542	240	1
1	551	244	1
1	562	248	1
1	573	252	1
1	584	256	1
1	589	260	1
1	599	264	1
1	612	268	1
1	621	272	1
1	630	276	1
1	635	280	1
1	643	284	1
1	652	288	1
1	661	292	1
1	672	296	1
1	677	300	1
1	685	304	1
1	695	308	1
1	706	312	1
1	717	316	1
1	722	320	1
1	732	324	1
1	743	328	1
1	754	332	1
1	766	336	1
1	771	340	1
1	779	344	1
1	788	348	1
1	798	352	1
1	810	356	1
1	815	360	1
1	823	364	1
1	832	368	1
1	842	372	1
1	854	376	1
1	859	380	1
1	867	384	1
1	876	388	1
1	885	392	1
1	895	396	1
1	900	400	1
1	910	404	1
1	921	408	1
1	932	412	1
1	944	416	1
1	949	420	1
1	957	424	1
1	966	428	1
1	975	432	1
1	986	436	1
1	991	440	1
1	999	444	1
1	1008	448	1
1	1017	452	1
1	1026	456	1
1	1031	460	1
1	1041	464	1
1	1050	468	1
1	1059	472	1
1	1068	476	1
1	1073	480	1
1	1081	484	1
1	1092	488	1
1	1101	492	1
1	1110	496	1
1	1115	500	1
1	1123	504	1
1	1132	508	1
1	1141	512	1
1	1151	516	1
1	1156	520	1
1	1166	524	1
1	1178	528	1
1	1188	532	1
1	1199	536	1
1	1204	540	1
1	1215	544	1
1	1224	548	1
1	1233	552	1
1	1242	556	1
1	1247	560	1
1	1256	564	1
1	1268	568	1
1	1277	572	1
1	1286	576	1
1	1291	580	1
1	1299	584	1
1	1308	588	1
1	1317	592	1
1	1326	596	1
1	1331	600	1
1	1340	604	1
1	1351	608	1
1	1362	612	1
1	1373	616	1
1	1378	620	1
1	1389	624	1
1	1399	628	1
1	1409	632	1
1	1418	636	1
1	1423	640	1
1	1432	644	1
1	1442	648	1
1	1453	652	1
1	1462	656	1
1	1467	660	1
1	1475	664	1
1	1484	668	1
1	1494	672	1
1	1505	676	1
1	1510	680	1
1	1521	684	1
1	1530	688	1
1	1539	692	1
1	1549	696	1
1	1554	700	1
1	1563	704	1
1	1574	708	1
1	1584	712	1
1	1595	716	1
1	1600	720	1
1	1611	724	1
1	1620	728	1
1	1629	732	1
1	1638	736	1
1	1643	740	1
1	1651	744	1
1	1662	748	1
1	1672	752	1
1	1683	756	1
1	1688	760	1
1	1697	764	1
1	1707	768	1
1	1717	772	1
1	1727	776	1
1	1732	780	1
1	1741	784	1
1	1752	788	1
1	1761	792	1
1	1770	796	1
1	1775	800	1
1	1783	804	1
1	1793	808	1
1	1804	812	1
1	1816	816	1
1	1821	820	1
1	1829	824	1
1	1838	828	1
1	1847	832	1
1	1857	836	1
1	1862	840	1
1	1873	844	1
1	1882	848	1
1	1892	852	1
1	1904	856	1
1	1909	860	1
1	1917	864	1
1	1926	868	1
1	1935	872	1
1	1944	876	1
1	1949	880	1
1	1957	884	1
1	1967	888	1
1	1979	892	1
1	1988	896	1
1	1993	900	1
1	2001	904	1
1	2011	908	1
1	2021	912	1
1	2031	916	1
1	2036	920	1
1	2045	924	1
1	2056	928	1
1	2065	932	1
1	2074	936	1
1	2079	940	1
1	2087	944	1
1	2097	948	1
1	2107	952	1
1	2117	956	1
1	2122	960	1
1	2133	964	1
1	2143	968	1
1	2153	972	1
1	2165	976	1
1	2170	980	1
1	2178	984	1
1	2187	988	1
1	2196	992	1
1	2206	996	1
1	2211	1000	1
1	2222	1004	1
1	2231	1008	1
1	2240	1012	1
1	2250	1016	1
1	2255	1020	1
1	2265	1024	1
1	2276	1028	1
1	2289	1032	1
1	2298	1036	1
1	2303	1040	1
1	2311	1044	1
1	2320	1048	1
1	2330	1052	1
1	2342	1056	1
1	2347	1060	1
1	2355	1064	1
1	2364	1068	1
1	2374	1072	1
1	2385	1076	1
1	2390	1080	1
1	2401	1084	1
1	2410	1088	1
1	2421	1092	1
1	2430	1096	1
1	2435	1100	1
1	2444	1104	1
1	2455	1108	1
1	2466	1112	1
1	2476	1116	1
1	2481	1120	1
1	2490	1124	1
1	2501	1128	1
1	2511	1132	1
1	2521	1136	1
1	2526	1140	1
1	2536	1144	1
1	2548	1148	1
1	2557	1152	1
1	2566	1156	1
1	2571	1160	1
1	2579	1164	1
1	2588	1168	1
1	2597	1172	1
1	2607	1176	1
1	2612	1180	1
1	2623	1184	1
1	2632	1188	1
1	2641	1192	1
1	2651	1196	1
1	2656	1200	1
1	2666	1204	1
1	2676	1208	1
1	2685	1212	1
1	2694	1216	1
1	2699	1220	1
1	2707	1224	1
1	2717	1228	1
1	2728	1232	1
1	2740	1236	1
1	2745	1240	1
1	2753	1244	1
1	2762	1248	1
1	2771	1252	1
1	2780	1256	1
1	2785	1260	1
1	2793	1264	1
1	2803	1268	1
1	2814	1272	1
1	2826	1276	1
1	2831	1280	1
1	2839	1284	1
1	2848	1288	1
1	2858	1292	1
1	2869	1296	1
1	2874	1300	1
1	2883	1304	1
1	2894	1308	1
1	2903	1312	1
1	2912	1316	1
1	2917	1320	1
1	2925	1324	1
1	2934	1328	1
1	2943	1332	1
1	2953	1336	1
1	2958	1340	1
1	2967	1344	1
1	2977	1348	1
1	2988	1352	1
1	2999	1356	1
1	3004	1360	1
1	3014	1364	1
1	3026	1368	1
1	3035	1372	1
1	3044	1376	1
1	3049	1380	1
1	3058	1384	1
1	3068	1388	1
1	3080	1392	1
1	3089	1396	1
1	3094	1400	1
1	3102	1404	1
1	3111	1408	1
1	3120	1412	1
1	3129	1416	1
1	3134	1420	1
1	3142	1424	1
1	3152	1428	1
1	3162	1432	1
1	3172	1436	1
1	3177	1440	1
1	3189	1444	1
1	3198	1448	1
1	3207	1452	1
1	3217	1456	1
1	3222	1460	1
1	3232	1464	1
1	3242	1468	1
1	3253	1472	1
1	3262	1476	1
1	3267	1480	1
1	3275	1484	1
1	3284	1488	1
1	3294	1492	1
1	3305	1496	1
1	3310	1500	1
1	3319	1504	1
1	3329	1508	1
1	3340	1512	1
1	3350	1516	1
1	3355	1520	1
1	3365	1524	1
1	3374	1528	1
1	3384	1532	1
1	3395	1536	1
1	3400	1540	1
1	3410	1544	1
1	3421	1548	1
1	3433	1552	1
1	3442	1556	1
1	3447	1560	1
1	3455	1564	1
1	3464	1568	1
1	3473	1572	1
1	3483	1576	1
1	3488	1580	1
1	3499	1584	1
1	3508	1588	1
1	3517	1592	1
1	3526	1596	1
1	3531	1600	1
1	3539	1604	1
1	3549	1608	1
1	3561	1612	1
1	3570	1616	1
1	3575	1620	1
1	3583	1624	1
1	3592	1628	1
1	3601	1632	1
1	3610	1636	1
1	3615	1640	1
1	3624	1644	1
1	3635	1648	1
1	3645	1652	1
1	3655	1656	1
1	3660	1660	1
1	3669	1664	1
1	3679	1668	1
1	3690	1672	1
1	3703	1676	1
1	3708	1680	1
1	3716	1684	1
1	3725	1688	1
1	3734	1692	1
1	3743	1696	1
1	3748	1700	1
1	3756	1704	1
1	3767	1708	1
1	3776	1712	1
1	3785	1716	1
1	3790	1720	1
1	3798	1724	1
1	3807	1728	1
1	3816	1732	1
1	3825	1736	1
1	3830	1740	1
1	3838	1744	1
1	3848	1748	1
1	3859	1752	1
1	3870	1756	1
1	3875	1760	1
1	3885	1764	1
1	3896	1768	1
1	3906	1772	1
1	3917	1776	1
1	3922	1780	1
1	3930	1784	1
1	3939	1788	1
1	3950	1792	1
1	3959	1796	1
1	3964	1800	1
1	3972	1804	1
1	3981	1808	1
1	3990	1812	1
1	4000	1816	1
1	4005	1820	1
1	4016	1824	1
1	4025	1828	1
1	4034	1832	1
1	4043	1836	1
1	4048	1840	1
1	4056	1844	1
1	4065	1848	1
1	4075	1852	1
1	4086	1856	1
1	4091	1860	1
1	4101	1864	1
1	4112	1868	1
1	4123	1872	1
1	4135	1876	1
1	4140	1880	1
1	4148	1884	1
1	4157	1888	1
1	4166	1892	1
1	4176	1896	1
1	4181	1900	1
1	4191	1904	1
1	4202	1908	1
1	4213	1912	1
1	4225	1916	1
1	4230	1920	1
1	4238	1924	1
1	4247	1928	1
1	4256	1932	1
1	4266	1936	1
1	4271	1940	1
1	4281	1944	1
1	4293	1948	1
1	4302	1952	1
1	4311	1956	1
1	4316	1960	1
1	4325	1964	1
1	4336	1968	1
1	4347	1972	1
1	4357	1976	1
1	4362	1980	1
1	4372	1984	1
1	4381	1988	1
1	4390	1992	1
1	4399	1996	1
1	4404	2000	1
1	4413	2004	1
1	4424	2008	1
1	4435	2012	1
1	4445	2016	1
1	4450	2020	1
1	4460	2024	1
1	4469	2028	1
1	4478	2032	1
1	4487	2036	1
1	4492	2040	1
1	4501	2044	1
1	4511	2048	1
1	4522	2052	1
1	4531	2056	1
1	4536	2060	1
1	4544	2064	1
1	4553	2068	1
1	4562	2072	1
1	4571	2076	1
1	4576	2080	1
1	4584	2084	1
1	4595	2088	1
1	4604	2092	1
1	4613	2096	1
1	4618	2100	1
1	4626	2104	1
1	4635	2108	1
1	4645	2112	1
1	4656	2116	1
1	4661	2120	1
1	4671	2124	1
1	4681	2128	1
1	4691	2132	1
1	4701	2136	1
1	4706	2140	1
1	4715	2144	1
1	4725	2148	1
1	4735	2152	1
1	4746	2156	1
1	4751	2160	1
1	4760	2164	1
1	4770	2168	1
1	4780	2172	1
1	4790	2176	1
1	4795	2180	1
1	4804	2184	1
1	4815	2188	1
1	4824	2192	1
1	4833	2196	1
1	4838	2200	1
1	4846	2204	1
1	4855	2208	1
1	4866	2212	1
1	4875	2216	1
1	4880	2220	1
1	4888	2224	1
1	4897	2228	1
1	4906	2232	1
1	4915	2236	1
1	4920	2240	1
1	4928	2244	1
1	4938	2248	1
1	4948	2252	1
1	4958	2256	1
1	4963	2260	1
1	4972	2264	1
1	4982	2268	1
1	4993	2272	1
1	5003	2276	1
1	5008	2280	1
1	5016	2284	1
1	5026	2288	1
1	5037	2292	1
1	5049	2296	1
1	5054	2300	1
1	5062	2304	1
1	5071	2308	1
1	5080	2312	1
1	5089	2316	1
1	5094	2320	1
1	5103	2324	1
1	5113	2328	1
1	5123	2332	1
1	5133	2336	1
1	5138	2340	1
1	5147	2344	1
1	5157	2348	1
1	5167	2352	1
1	5177	2356	1
1	5182	2360	1
1	5191	2364	1
1	5201	2368	1
1	5210	2372	1
1	5220	2376	1
1	5225	2380	1
1	5234	2384	1
1	5243	2388	1
1	5253	2392	1
1	5264	2396	1
1	5269	2400	1
1	5279	2404	1
1	5290	2408	1
1	5301	2412	1
1	5312	2416	1
1	5317	2420	1
1	5326	2424	1
1	5336	2428	1
1	5346	2432	1
1	5356	2436	1
1	5361	2440	1
1	5371	2444	1
1	5382	2448	1
1	5393	2452	1
1	5403	2456	1
1	5408	2460	1
1	5417	2464	1
1	5428	2468	1
1	5440	2472	1
1	5449	2476	1
1	5454	2480	1
1	5462	2484	1
1	5471	2488	1
1	5481	2492	1
1	5492	2496	1
1	5497	2500	1
1	5507	2504	1
1	5518	2508	1
1	5529	2512	1
1	5541	2516	1
1	5546	2520	1
1	5554	2524	1
1	5563	2528	1
1	5573	2532	1
1	5584	2536	1
1	5589	2540	1
1	5599	2544	1
1	5611	2548	1
1	5621	2552	1
1	5632	2556	1
1	5637	2560	1
1	5647	2564	1
1	5658	2568	1
1	5669	2572	1
1	5680	2576	1
1	5685	2580	1
1	5694	2584	1
1	5705	2588	1
1	5714	2592	1
1	5723	2596	1
1	5728	2600	1
1	5736	2604	1
1	5746	2608	1
1	5756	2612	1
1	5765	2616	1
1	5770	2620	1
1	5779	2624	1
1	5790	2628	1
1	5801	2632	1
1	5811	2636	1
1	5816	2640	1
1	5825	2644	1
1	5837	2648	1
1	5846	2652	1
1	5855	2656	1
1	5860	2660	1
1	5868	2664	1
1	5877	2668	1
1	5886	2672	1
1	5897	2676	1
1	5902	2680	1
1	5911	2684	1
1	5921	2688	1
1	5931	2692	1
1	5942	2696	1
1	5947	2700	1
1	5958	2704	1
1	5967	2708	1
1	5976	2712	1
1	5985	2716	1
1	5990	2720	1
1	5999	2724	1
1	6011	2728	1
1	6020	2732	1
1	6029	2736	1
1	6034	2740	1
1	6042	2744	1
1	6053	2748	1
1	6062	2752	1
1	6071	2756	1
1	6076	2760	1
1	6084	2764	1
1	6093	2768	1
1	6103	2772	1
1	6115	2776	1
1	6120	2780	1
1	6128	2784	1
1	6137	2788	1
1	6146	2792	1
1	6155	2796	1
1	6160	2800	1
1	6169	2804	1
1	6180	2808	1
1	6191	2812	1
1	6202	2816	1
1	6207	2820	1
1	6216	2824	1
1	6225	2828	1
1	6234	2832	1
1	6243	2836	1
1	6248	2840	1
1	6257	2844	1
1	6267	2848	1
1	6277	2852	1
1	6289	2856	1
1	6294	2860	1
1	6302	2864	1
1	6311	2868	1
1	6320	2872	1
1	6329	2876	1
1	6334	2880	1
1	6343	2884	1
1	6353	2888	1
1	6364	2892	1
1	6373	2896	1
1	6378	2900	1
1	6386	2904	1
1	6395	2908	1
1	6404	2912	1
1	6413	2916	1
1	6418	2920	1
1	6426	2924	1
1	6437	2928	1
1	6446	2932	1
1	6455	2936	1
1	6460	2940	1
1	6468	2944	1
1	6478	2948	1
1	6489	2952	1
1	6499	2956	1
1	6504	2960	1
1	6514	2964	1
1	6524	2968	1
1	6535	2972	1
1	6545	2976	1
1	6550	2980	1
1	6559	2984	1
1	6569	2988	1
1	6579	2992	1
1	6591	2996	1
1	6596	3000	1
1	6604	3004	1
1	6613	3008	1
1	6622	3012	1
1	6631	3016	1
1	6636	3020	1
1	6645	3024	1
1	6657	3028	1
1	6666	3032	1
1	6675	3036	1
1	6680	3040	1
1	6688	3044	1
1	6698	3048	1
1	6708	3052	1
1	6718	3056	1
1	6723	3060	1
1	6734	3064	1
1	6743	3068	1
1	6752	3072	1
1	6761	3076	1
1	6766	3080	1
1	6775	3084	1
1	6786	3088	1
1	6798	3092	1
1	6807	3096	1
1	6812	3100	1
1	6820	3104	1
1	6829	3108	1
1	6838	3112	1
1	6848	3116	1
1	6853	3120	1
1	6864	3124	1
1	6873	3128	1
1	6882	3132	1
1	6891	3136	1
1	6896	3140	1
1	6904	3144	1
1	6914	3148	1
1	6926	3152	1
1	6935	3156	1
1	6940	3160	1
1	6948	3164	1
1	6957	3168	1
1	6967	3172	1
1	6978	3176	1
1	6983	3180	1
1	6993	3184	1
1	7003	3188	1
1	7014	3192	1
1	7023	3196	1
1	7028	3200	1
1	7036	3204	1
1	7045	3208	1
1	7054	3212	1
1	7064	3216	1
1	7069	3220	1
1	7080	3224	1
1	7089	3228	1
1	7098	3232	1
1	7108	3236	1
1	7113	3240	1
1	7123	3244	1
1	7135	3248	1
1	7144	3252	1
1	7153	3256	1
1	7158	3260	1
1	7166	3264	1
1	7177	3268	1
1	7186	3272	1
1	7195	3276	1
1	7200	3280	1
1	7209	3284	1
1	7220	3288	1
1	7231	3292	1
1	7241	3296	1
1	7246	3300	1
1	7254	3304	1
1	7264	3308	1
1	7274	3312	1
1	7284	3316	1
1	7289	3320	1
1	7298	3324	1
1	7307	3328	1
1	7317	3332	1
1	7329	3336	1
1	7334	3340	1
1	7343	3344	1
1	7354	3348	1
1	7364	3352	1
1	7373	3356	1
1	7378	3360	1
1	7388	3364	1
1	7398	3368	1
1	7409	3372	1
1	7420	3376	1
1	7425	3380	1
1	7436	3384	1
1	7446	3388	1
1	7457	3392	1
1	7467	3396	1
1	7472	3400	1
1	7481	3404	1
1	7492	3408	1
1	7502	3412	1
1	7513	3416	1
1	7518	3420	1
1	7526	3424	1
1	7535	3428	1
1	7545	3432	1
1	7555	3436	1
1	7560	3440	1
1	7569	3444	1
1	7581	3448	1
1	7590	3452	1
1	7599	3456	1
1	7604	3460	1
1	7612	3464	1
1	7622	3468	1
1	7633	3472	1
1	7644	3476	1
1	7649	3480	1
1	7659	3484	1
1	7669	3488	1
1	7679	3492	1
1	7691	3496	1
1	7696	3500	1
1	7704	3504	1
1	7714	3508	1
1	7725	3512	1
1	7736	3516	1
1	7741	3520	1
1	7751	3524	1
1	7762	3528	1
1	7774	3532	1
1	7783	3536	1
1	7788	3540	1
1	7797	3544	1
1	7807	3548	1
1	7818	3552	1
1	7828	3556	1
1	7833	3560	1
1	7842	3564	1
1	7852	3568	1
1	7863	3572	1
1	7874	3576	1
1	7879	3580	1
1	7888	3584	1
1	7897	3588	1
1	7908	3592	1
1	7917	3596	1
1	7922	3600	1
2	3	4	1
2	15	8	1
2	24	12	1
2	33	16	1
2	38	20	1
2	47	24	1
2	58	28	1
2	70	32	1
2	80	36	1
2	85	40	1
2	95	44	1
2	106	48	1
2	116	52	1
2	126	56	1
2	131	60	1
2	142	64	1
2	152	68	1
2	163	72	1
2	175	76	1
2	180	80	1
2	189	84	1
2	200	88	1
2	210	92	1
2	220	96	1
2	225	100	1
2	237	104	1
2	246	108	1
2	255	112	1
2	265	116	1
2	270	120	1
2	280	124	1
2	291	128	1
2	304	132	1
2	313	136	1
2	318	140	1
2	327	144	1
2	337	148	1
2	347	152	1
2	359	156	1
2	364	160	1
2	373	164	1
2	383	168	1
2	394	172	1
2	404	176	1
2	409	180	1
2	419	184	1
2	430	188	1
2	443	192	1
2	452	196	1
2	457	200	1
2	465	204	1
2	474	208	1
2	483	212	1
2	492	216	1
2	497	220	1
2	506	224	1
2	518	228	1
2	527	232	1
2	538	236	1
2	543	240	1
2	552	244	1
2	563	248	1
2	574	252	1
2	585	256	1
2	590	260	1
2	600	264	1
2	613	268	1
2	622	272	1
2	631	276	1
2	636	280	1
2	644	284	1
2	653	288	1
2	662	292	1
2	673	296	1
2	678	300	1
2	686	304	1
2	696	308	1
2	707	312	1
2	718	316	1
2	723	320	1
2	733	324	1
2	744	328	1
2	755	332	1
2	767	336	1
2	772	340	1
2	780	344	1
2	789	348	1
2	799	352	1
2	811	356	1
2	816	360	1
2	824	364	1
2	833	368	1
2	843	372	1
2	855	376	1
2	860	380	1
2	868	384	1
2	877	388	1
2	886	392	1
2	896	396	1
2	901	400	1
2	911	404	1
2	922	408	1
2	933	412	1
2	945	416	1
2	950	420	1
2	958	424	1
2	967	428	1
2	976	432	1
2	987	436	1
2	992	440	1
2	1000	444	1
2	1009	448	1
2	1018	452	1
2	1027	456	1
2	1032	460	1
2	1042	464	1
2	1051	468	1
2	1060	472	1
2	1069	476	1
2	1074	480	1
2	1082	484	1
2	1093	488	1
2	1102	492	1
2	1111	496	1
2	1116	500	1
2	1124	504	1
2	1133	508	1
2	1142	512	1
2	1152	516	1
2	1157	520	1
2	1167	524	1
2	1179	528	1
2	1189	532	1
2	1200	536	1
2	1205	540	1
2	1216	544	1
2	1225	548	1
2	1234	552	1
2	1243	556	1
2	1248	560	1
2	1257	564	1
2	1269	568	1
2	1278	572	1
2	1287	576	1
2	1292	580	1
2	1300	584	1
2	1309	588	1
2	1318	592	1
2	1327	596	1
2	1332	600	1
2	1341	604	1
2	1352	608	1
2	1363	612	1
2	1374	616	1
2	1379	620	1
2	1390	624	1
2	1400	628	1
2	1410	632	1
2	1419	636	1
2	1424	640	1
2	1433	644	1
2	1443	648	1
2	1454	652	1
2	1463	656	1
2	1468	660	1
2	1476	664	1
2	1485	668	1
2	1495	672	1
2	1506	676	1
2	1511	680	1
2	1522	684	1
2	1531	688	1
2	1540	692	1
2	1550	696	1
2	1555	700	1
2	1564	704	1
2	1575	708	1
2	1585	712	1
2	1596	716	1
2	1601	720	1
2	1612	724	1
2	1621	728	1
2	1630	732	1
2	1639	736	1
2	1644	740	1
2	1652	744	1
2	1663	748	1
2	1673	752	1
2	1684	756	1
2	1689	760	1
2	1698	764	1
2	1708	768	1
2	1718	772	1
2	1728	776	1
2	1733	780	1
2	1742	784	1
2	1753	788	1
2	1762	792	1
2	1771	796	1
2	1776	800	1
2	1784	804	1
2	1794	808	1
2	1805	812	1
2	1817	816	1
2	1822	820	1
2	1830	824	1
2	1839	828	1
2	1848	832	1
2	1858	836	1
2	1863	840	1
2	1874	844	1
2	1883	848	1
2	1893	852	1
2	1905	856	1
2	1910	860	1
2	1918	864	1
2	1927	868	1
2	1936	872	1
2	1945	876	1
2	1950	880	1
2	1958	884	1
2	1968	888	1
2	1980	892	1
2	1989	896	1
2	1994	900	1
2	2002	904	1
2	2012	908	1
2	2022	912	1
2	2032	916	1
2	2037	920	1
2	2046	924	1
2	2057	928	1
2	2066	932	1
2	2075	936	1
2	2080	940	1
2	2088	944	1
2	2098	948	1
2	2108	952	1
2	2118	956	1
2	2123	960	1
2	2134	964	1
2	2144	968	1
2	2154	972	1
2	2166	976	1
2	2171	980	1
2	2179	984	1
2	2188	988	1
2	2197	992	1
2	2207	996	1
2	2212	1000	1
2	2223	1004	1
2	2232	1008	1
2	2241	1012	1
2	2251	1016	1
2	2256	1020	1
2	2266	1024	1
2	2277	1028	1
2	2290	1032	1
2	2299	1036	1
2	2304	1040	1
2	2312	1044	1
2	2321	1048	1
2	2331	1052	1
2	2343	1056	1
2	2348	1060	1
2	2356	1064	1
2	2365	1068	1
2	2375	1072	1
2	2386	1076	1
2	2391	1080	1
2	2402	1084	1
2	2411	1088	1
2	2422	1092	1
2	2431	1096	1
2	2436	1100	1
2	2445	1104	1
2	2456	1108	1
2	2467	1112	1
2	2477	1116	1
2	2482	1120	1
2	2491	1124	1
2	2502	1128	1
2	2512	1132	1
2	2522	1136	1
2	2527	1140	1
2	2537	1144	1
2	2549	1148	1
2	2558	1152	1
2	2567	1156	1
2	2572	1160	1
2	2580	1164	1
2	2589	1168	1
2	2598	1172	1
2	2608	1176	1
2	2613	1180	1
2	2624	1184	1
2	2633	1188	1
2	2642	1192	1
2	2652	1196	1
2	2657	1200	1
2	2667	1204	1
2	2677	1208	1
2	2686	1212	1
2	2695	1216	1
2	2700	1220	1
2	2708	1224	1
2	2718	1228	1
2	2729	1232	1
2	2741	1236	1
2	2746	1240	1
2	2754	1244	1
2	2763	1248	1
2	2772	1252	1
2	2781	1256	1
2	2786	1260	1
2	2794	1264	1
2	2804	1268	1
2	2815	1272	1
2	2827	1276	1
2	2832	1280	1
2	2840	1284	1
2	2849	1288	1
2	2859	1292	1
2	2870	1296	1
2	2875	1300	1
2	2884	1304	1
2	2895	1308	1
2	2904	1312	1
2	2913	1316	1
2	2918	1320	1
2	2926	1324	1
2	2935	1328	1
2	2944	1332	1
2	2954	1336	1
2	2959	1340	1
2	2968	1344	1
2	2978	1348	1
2	2989	1352	1
2	3000	1356	1
2	3005	1360	1
2	3015	1364	1
2	3027	1368	1
2	3036	1372	1
2	3045	1376	1
2	3050	1380	1
2	3059	1384	1
2	3069	1388	1
2	3081	1392	1
2	3090	1396	1
2	3095	1400	1
2	3103	1404	1
2	3112	1408	1
2	3121	1412	1
2	3130	1416	1
2	3135	1420	1
2	3143	1424	1
2	3153	1428	1
2	3163	1432	1
2	3173	1436	1
2	3178	1440	1
2	3190	1444	1
2	3199	1448	1
2	3208	1452	1
2	3218	1456	1
2	3223	1460	1
2	3233	1464	1
2	3243	1468	1
2	3254	1472	1
2	3263	1476	1
2	3268	1480	1
2	3276	1484	1
2	3285	1488	1
2	3295	1492	1
2	3306	1496	1
2	3311	1500	1
2	3320	1504	1
2	3330	1508	1
2	3341	1512	1
2	3351	1516	1
2	3356	1520	1
2	3366	1524	1
2	3375	1528	1
2	3385	1532	1
2	3396	1536	1
2	3401	1540	1
2	3411	1544	1
2	3422	1548	1
2	3434	1552	1
2	3443	1556	1
2	3448	1560	1
2	3456	1564	1
2	3465	1568	1
2	3474	1572	1
2	3484	1576	1
2	3489	1580	1
2	3500	1584	1
2	3509	1588	1
2	3518	1592	1
2	3527	1596	1
2	3532	1600	1
2	3540	1604	1
2	3550	1608	1
2	3562	1612	1
2	3571	1616	1
2	3576	1620	1
2	3584	1624	1
2	3593	1628	1
2	3602	1632	1
2	3611	1636	1
2	3616	1640	1
2	3625	1644	1
2	3636	1648	1
2	3646	1652	1
2	3656	1656	1
2	3661	1660	1
2	3670	1664	1
2	3680	1668	1
2	3691	1672	1
2	3704	1676	1
2	3709	1680	1
2	3717	1684	1
2	3726	1688	1
2	3735	1692	1
2	3744	1696	1
2	3749	1700	1
2	3757	1704	1
2	3768	1708	1
2	3777	1712	1
2	3786	1716	1
2	3791	1720	1
2	3799	1724	1
2	3808	1728	1
2	3817	1732	1
2	3826	1736	1
2	3831	1740	1
2	3839	1744	1
2	3849	1748	1
2	3860	1752	1
2	3871	1756	1
2	3876	1760	1
2	3886	1764	1
2	3897	1768	1
2	3907	1772	1
2	3918	1776	1
2	3923	1780	1
2	3931	1784	1
2	3940	1788	1
2	3951	1792	1
2	3960	1796	1
2	3965	1800	1
2	3973	1804	1
2	3982	1808	1
2	3991	1812	1
2	4001	1816	1
2	4006	1820	1
2	4017	1824	1
2	4026	1828	1
2	4035	1832	1
2	4044	1836	1
2	4049	1840	1
2	4057	1844	1
2	4066	1848	1
2	4076	1852	1
2	4087	1856	1
2	4092	1860	1
2	4102	1864	1
2	4113	1868	1
2	4124	1872	1
2	4136	1876	1
2	4141	1880	1
2	4149	1884	1
2	4158	1888	1
2	4167	1892	1
2	4177	1896	1
2	4182	1900	1
2	4192	1904	1
2	4203	1908	1
2	4214	1912	1
2	4226	1916	1
2	4231	1920	1
2	4239	1924	1
2	4248	1928	1
2	4257	1932	1
2	4267	1936	1
2	4272	1940	1
2	4282	1944	1
2	4294	1948	1
2	4303	1952	1
2	4312	1956	1
2	4317	1960	1
2	4326	1964	1
2	4337	1968	1
2	4348	1972	1
2	4358	1976	1
2	4363	1980	1
2	4373	1984	1
2	4382	1988	1
2	4391	1992	1
2	4400	1996	1
2	4405	2000	1
2	4414	2004	1
2	4425	2008	1
2	4436	2012	1
2	4446	2016	1
2	4451	2020	1
2	4461	2024	1
2	4470	2028	1
2	4479	2032	1
2	4488	2036	1
2	4493	2040	1
2	4502	2044	1
2	4512	2048	1
2	4523	2052	1
2	4532	2056	1
2	4537	2060	1
2	4545	2064	1
2	4554	2068	1
2	4563	2072	1
2	4572	2076	1
2	4577	2080	1
2	4585	2084	1
2	4596	2088	1
2	4605	2092	1
2	4614	2096	1
2	4619	2100	1
2	4627	2104	1
2	4636	2108	1
2	4646	2112	1
2	4657	2116	1
2	4662	2120	1
2	4672	2124	1
2	4682	2128	1
2	4692	2132	1
2	4702	2136	1
2	4707	2140	1
2	4716	2144	1
2	4726	2148	1
2	4736	2152	1
2	4747	2156	1
2	4752	2160	1
2	4761	2164	1
2	4771	2168	1
2	4781	2172	1
2	4791	2176	1
2	4796	2180	1
2	4805	2184	1
2	4816	2188	1
2	4825	2192	1
2	4834	2196	1
2	4839	2200	1
2	4847	2204	1
2	4856	2208	1
2	4867	2212	1
2	4876	2216	1
2	4881	2220	1
2	4889	2224	1
2	4898	2228	1
2	4907	2232	1
2	4916	2236	1
2	4921	2240	1
2	4929	2244	1
2	4939	2248	1
2	4949	2252	1
2	4959	2256	1
2	4964	2260	1
2	4973	2264	1
2	4983	2268	1
2	4994	2272	1
2	5004	2276	1
2	5009	2280	1
2	5017	2284	1
2	5027	2288	1
2	5038	2292	1
2	5050	2296	1
2	5055	2300	1
2	5063	2304	1
2	5072	2308	1
2	5081	2312	1
2	5090	2316	1
2	5095	2320	1
2	5104	2324	1
2	5114	2328	1
2	5124	2332	1
2	5134	2336	1
2	5139	2340	1
2	5148	2344	1
2	5158	2348	1
2	5168	2352	1
2	5178	2356	1
2	5183	2360	1
2	5192	2364	1
2	5202	2368	1
2	5211	2372	1
2	5221	2376	1
2	5226	2380	1
2	5235	2384	1
2	5244	2388	1
2	5254	2392	1
2	5265	2396	1
2	5270	2400	1
2	5280	2404	1
2	5291	2408	1
2	5302	2412	1
2	5313	2416	1
2	5318	2420	1
2	5327	2424	1
2	5337	2428	1
2	5347	2432	1
2	5357	2436	1
2	5362	2440	1
2	5372	2444	1
2	5383	2448	1
2	5394	2452	1
2	5404	2456	1
2	5409	2460	1
2	5418	2464	1
2	5429	2468	1
2	5441	2472	1
2	5450	2476	1
2	5455	2480	1
2	5463	2484	1
2	5472	2488	1
2	5482	2492	1
2	5493	2496	1
2	5498	2500	1
2	5508	2504	1
2	5519	2508	1
2	5530	2512	1
2	5542	2516	1
2	5547	2520	1
2	5555	2524	1
2	5564	2528	1
2	5574	2532	1
2	5585	2536	1
2	5590	2540	1
2	5600	2544	1
2	5612	2548	1
2	5622	2552	1
2	5633	2556	1
2	5638	2560	1
2	5648	2564	1
2	5659	2568	1
2	5670	2572	1
2	5681	2576	1
2	5686	2580	1
2	5695	2584	1
2	5706	2588	1
2	5715	2592	1
2	5724	2596	1
2	5729	2600	1
2	5737	2604	1
2	5747	2608	1
2	5757	2612	1
2	5766	2616	1
2	5771	2620	1
2	5780	2624	1
2	5791	2628	1
2	5802	2632	1
2	5812	2636	1
2	5817	2640	1
2	5826	2644	1
2	5838	2648	1
2	5847	2652	1
2	5856	2656	1
2	5861	2660	1
2	5869	2664	1
2	5878	2668	1
2	5887	2672	1
2	5898	2676	1
2	5903	2680	1
2	5912	2684	1
2	5922	2688	1
2	5932	2692	1
2	5943	2696	1
2	5948	2700	1
2	5959	2704	1
2	5968	2708	1
2	5977	2712	1
2	5986	2716	1
2	5991	2720	1
2	6000	2724	1
2	6012	2728	1
2	6021	2732	1
2	6030	2736	1
2	6035	2740	1
2	6043	2744	1
2	6054	2748	1
2	6063	2752	1
2	6072	2756	1
2	6077	2760	1
2	6085	2764	1
2	6094	2768	1
2	6104	2772	1
2	6116	2776	1
2	6121	2780	1
2	6129	2784	1
2	6138	2788	1
2	6147	2792	1
2	6156	2796	1
2	6161	2800	1
2	6170	2804	1
2	6181	2808	1
2	6192	2812	1
2	6203	2816	1
2	6208	2820	1
2	6217	2824	1
2	6226	2828	1
2	6235	2832	1
2	6244	2836	1
2	6249	2840	1
2	6258	2844	1
2	6268	2848	1
2	6278	2852	1
2	6290	2856	1
2	6295	2860	1
2	6303	2864	1
2	6312	2868	1
2	6321	2872	1
2	6330	2876	1
2	6335	2880	1
2	6344	2884	1
2	6354	2888	1
2	6365	2892	1
2	6374	2896	1
2	6379	2900	1
2	6387	2904	1
2	6396	2908	1
2	6405	2912	1
2	6414	2916	1
2	6419	2920	1
2	6427	2924	1
2	6438	2928	1
2	6447	2932	1
2	6456	2936	1
2	6461	2940	1
2	6469	2944	1
2	6479	2948	1
2	6490	2952	1
2	6500	2956	1
2	6505	2960	1
2	6515	2964	1
2	6525	2968	1
2	6536	2972	1
2	6546	2976	1
2	6551	2980	1
2	6560	2984	1
2	6570	2988	1
2	6580	2992	1
2	6592	2996	1
2	6597	3000	1
2	6605	3004	1
2	6614	3008	1
2	6623	3012	1
2	6632	3016	1
2	6637	3020	1
2	6646	3024	1
2	6658	3028	1
2	6667	3032	1
2	6676	3036	1
2	6681	3040	1
2	6689	3044	1
2	6699	3048	1
2	6709	3052	1
2	6719	3056	1
2	6724	3060	1
2	6735	3064	1
2	6744	3068	1
2	6753	3072	1
2	6762	3076	1
2	6767	3080	1
2	6776	3084	1
2	6787	3088	1
2	6799	3092	1
2	6808	3096	1
2	6813	3100	1
2	6821	3104	1
2	6830	3108	1
2	6839	3112	1
2	6849	3116	1
2	6854	3120	1
2	6865	3124	1
2	6874	3128	1
2	6883	3132	1
2	6892	3136	1
2	6897	3140	1
2	6905	3144	1
2	6915	3148	1
2	6927	3152	1
2	6936	3156	1
2	6941	3160	1
2	6949	3164	1
2	6958	3168	1
2	6968	3172	1
2	6979	3176	1
2	6984	3180	1
2	6994	3184	1
2	7004	3188	1
2	7015	3192	1
2	7024	3196	1
2	7029	3200	1
2	7037	3204	1
2	7046	3208	1
2	7055	3212	1
2	7065	3216	1
2	7070	3220	1
2	7081	3224	1
2	7090	3228	1
2	7099	3232	1
2	7109	3236	1
2	7114	3240	1
2	7124	3244	1
2	7136	3248	1
2	7145	3252	1
2	7154	3256	1
2	7159	3260	1
2	7167	3264	1
2	7178	3268	1
2	7187	3272	1
2	7196	3276	1
2	7201	3280	1
2	7210	3284	1
2	7221	3288	1
2	7232	3292	1
2	7242	3296	1
2	7247	3300	1
2	7255	3304	1
2	7265	3308	1
2	7275	3312	1
2	7285	3316	1
2	7290	3320	1
2	7299	3324	1
2	7308	3328	1
2	7318	3332	1
2	7330	3336	1
2	7335	3340	1
2	7344	3344	1
2	7355	3348	1
2	7365	3352	1
2	7374	3356	1
2	7379	3360	1
2	7389	3364	1
2	7399	3368	1
2	7410	3372	1
2	7421	3376	1
2	7426	3380	1
2	7437	3384	1
2	7447	3388	1
2	7458	3392	1
2	7468	3396	1
2	7473	3400	1
2	7482	3404	1
2	7493	3408	1
2	7503	3412	1
2	7514	3416	1
2	7519	3420	1
2	7527	3424	1
2	7536	3428	1
2	7546	3432	1
2	7556	3436	1
2	7561	3440	1
2	7570	3444	1
2	7582	3448	1
2	7591	3452	1
2	7600	3456	1
2	7605	3460	1
2	7613	3464	1
2	7623	3468	1
2	7634	3472	1
2	7645	3476	1
2	7650	3480	1
2	7660	3484	1
2	7670	3488	1
2	7680	3492	1
2	7692	3496	1
2	7697	3500	1
2	7705	3504	1
2	7715	3508	1
2	7726	3512	1
2	7737	3516	1
2	7742	3520	1
2	7752	3524	1
2	7763	3528	1
2	7775	3532	1
2	7784	3536	1
2	7789	3540	1
2	7798	3544	1
2	7808	3548	1
2	7819	3552	1
2	7829	3556	1
2	7834	3560	1
2	7843	3564	1
2	7853	3568	1
2	7864	3572	1
2	7875	3576	1
2	7880	3580	1
2	7889	3584	1
2	7898	3588	1
2	7909	3592	1
2	7918	3596	1
2	7923	3600	1
3	4	4	1
3	16	8	1
3	25	12	1
3	34	16	1
3	39	20	1
3	48	24	1
3	59	28	1
3	71	32	1
3	81	36	1
3	86	40	1
3	96	44	1
3	107	48	1
3	117	52	1
3	127	56	1
3	132	60	1
3	143	64	1
3	153	68	1
3	164	72	1
3	176	76	1
3	181	80	1
3	190	84	1
3	201	88	1
3	211	92	1
3	221	96	1
3	226	100	1
3	238	104	1
3	247	108	1
3	256	112	1
3	266	116	1
3	271	120	1
3	281	124	1
3	292	128	1
3	305	132	1
3	314	136	1
3	319	140	1
3	328	144	1
3	338	148	1
3	348	152	1
3	360	156	1
3	365	160	1
3	374	164	1
3	384	168	1
3	395	172	1
3	405	176	1
3	410	180	1
3	420	184	1
3	431	188	1
3	444	192	1
3	453	196	1
3	458	200	1
3	466	204	1
3	475	208	1
3	484	212	1
3	493	216	1
3	498	220	1
3	507	224	1
3	519	228	1
3	528	232	1
3	539	236	1
3	544	240	1
3	553	244	1
3	564	248	1
3	575	252	1
3	586	256	1
3	591	260	1
3	601	264	1
3	614	268	1
3	623	272	1
3	632	276	1
3	637	280	1
3	645	284	1
3	654	288	1
3	663	292	1
3	674	296	1
3	679	300	1
3	687	304	1
3	697	308	1
3	708	312	1
3	719	316	1
3	724	320	1
3	734	324	1
3	745	328	1
3	756	332	1
3	768	336	1
3	773	340	1
3	781	344	1
3	790	348	1
3	800	352	1
3	812	356	1
3	817	360	1
3	825	364	1
3	834	368	1
3	844	372	1
3	856	376	1
3	861	380	1
3	869	384	1
3	878	388	1
3	887	392	1
3	897	396	1
3	902	400	1
3	912	404	1
3	923	408	1
3	934	412	1
3	946	416	1
3	951	420	1
3	959	424	1
3	968	428	1
3	977	432	1
3	988	436	1
3	993	440	1
3	1001	444	1
3	1010	448	1
3	1019	452	1
3	1028	456	1
3	1033	460	1
3	1043	464	1
3	1052	468	1
3	1061	472	1
3	1070	476	1
3	1075	480	1
3	1083	484	1
3	1094	488	1
3	1103	492	1
3	1112	496	1
3	1117	500	1
3	1125	504	1
3	1134	508	1
3	1143	512	1
3	1153	516	1
3	1158	520	1
3	1168	524	1
3	1180	528	1
3	1190	532	1
3	1201	536	1
3	1206	540	1
3	1217	544	1
3	1226	548	1
3	1235	552	1
3	1244	556	1
3	1249	560	1
3	1258	564	1
3	1270	568	1
3	1279	572	1
3	1288	576	1
3	1293	580	1
3	1301	584	1
3	1310	588	1
3	1319	592	1
3	1328	596	1
3	1333	600	1
3	1342	604	1
3	1353	608	1
3	1364	612	1
3	1375	616	1
3	1380	620	1
3	1391	624	1
3	1401	628	1
3	1411	632	1
3	1420	636	1
3	1425	640	1
3	1434	644	1
3	1444	648	1
3	1455	652	1
3	1464	656	1
3	1469	660	1
3	1477	664	1
3	1486	668	1
3	1496	672	1
3	1507	676	1
3	1512	680	1
3	1523	684	1
3	1532	688	1
3	1541	692	1
3	1551	696	1
3	1556	700	1
3	1565	704	1
3	1576	708	1
3	1586	712	1
3	1597	716	1
3	1602	720	1
3	1613	724	1
3	1622	728	1
3	1631	732	1
3	1640	736	1
3	1645	740	1
3	1653	744	1
3	1664	748	1
3	1674	752	1
3	1685	756	1
3	1690	760	1
3	1699	764	1
3	1709	768	1
3	1719	772	1
3	1729	776	1
3	1734	780	1
3	1743	784	1
3	1754	788	1
3	1763	792	1
3	1772	796	1
3	1777	800	1
3	1785	804	1
3	1795	808	1
3	1806	812	1
3	1818	816	1
3	1823	820	1
3	1831	824	1
3	1840	828	1
3	1849	832	1
3	1859	836	1
3	1864	840	1
3	1875	844	1
3	1884	848	1
3	1894	852	1
3	1906	856	1
3	1911	860	1
3	1919	864	1
3	1928	868	1
3	1937	872	1
3	1946	876	1
3	1951	880	1
3	1959	884	1
3	1969	888	1
3	1981	892	1
3	1990	896	1
3	1995	900	1
3	2003	904	1
3	2013	908	1
3	2023	912	1
3	2033	916	1
3	2038	920	1
3	2047	924	1
3	2058	928	1
3	2067	932	1
3	2076	936	1
3	2081	940	1
3	2089	944	1
3	2099	948	1
3	2109	952	1
3	2119	956	1
3	2124	960	1
3	2135	964	1
3	2145	968	1
3	2155	972	1
3	2167	976	1
3	2172	980	1
3	2180	984	1
3	2189	988	1
3	2198	992	1
3	2208	996	1
3	2213	1000	1
3	2224	1004	1
3	2233	1008	1
3	2242	1012	1
3	2252	1016	1
3	2257	1020	1
3	2267	1024	1
3	2278	1028	1
3	2291	1032	1
3	2300	1036	1
3	2305	1040	1
3	2313	1044	1
3	2322	1048	1
3	2332	1052	1
3	2344	1056	1
3	2349	1060	1
3	2357	1064	1
3	2366	1068	1
3	2376	1072	1
3	2387	1076	1
3	2392	1080	1
3	2403	1084	1
3	2412	1088	1
3	2423	1092	1
3	2432	1096	1
3	2437	1100	1
3	2446	1104	1
3	2457	1108	1
3	2468	1112	1
3	2478	1116	1
3	2483	1120	1
3	2492	1124	1
3	2503	1128	1
3	2513	1132	1
3	2523	1136	1
3	2528	1140	1
3	2538	1144	1
3	2550	1148	1
3	2559	1152	1
3	2568	1156	1
3	2573	1160	1
3	2581	1164	1
3	2590	1168	1
3	2599	1172	1
3	2609	1176	1
3	2614	1180	1
3	2625	1184	1
3	2634	1188	1
3	2643	1192	1
3	2653	1196	1
3	2658	1200	1
3	2668	1204	1
3	2678	1208	1
3	2687	1212	1
3	2696	1216	1
3	2701	1220	1
3	2709	1224	1
3	2719	1228	1
3	2730	1232	1
3	2742	1236	1
3	2747	1240	1
3	2755	1244	1
3	2764	1248	1
3	2773	1252	1
3	2782	1256	1
3	2787	1260	1
3	2795	1264	1
3	2805	1268	1
3	2816	1272	1
3	2828	1276	1
3	2833	1280	1
3	2841	1284	1
3	2850	1288	1
3	2860	1292	1
3	2871	1296	1
3	2876	1300	1
3	2885	1304	1
3	2896	1308	1
3	2905	1312	1
3	2914	1316	1
3	2919	1320	1
3	2927	1324	1
3	2936	1328	1
3	2945	1332	1
3	2955	1336	1
3	2960	1340	1
3	2969	1344	1
3	2979	1348	1
3	2990	1352	1
3	3001	1356	1
3	3006	1360	1
3	3016	1364	1
3	3028	1368	1
3	3037	1372	1
3	3046	1376	1
3	3051	1380	1
3	3060	1384	1
3	3070	1388	1
3	3082	1392	1
3	3091	1396	1
3	3096	1400	1
3	3104	1404	1
3	3113	1408	1
3	3122	1412	1
3	3131	1416	1
3	3136	1420	1
3	3144	1424	1
3	3154	1428	1
3	3164	1432	1
3	3174	1436	1
3	3179	1440	1
3	3191	1444	1
3	3200	1448	1
3	3209	1452	1
3	3219	1456	1
3	3224	1460	1
3	3234	1464	1
3	3244	1468	1
3	3255	1472	1
3	3264	1476	1
3	3269	1480	1
3	3277	1484	1
3	3286	1488	1
3	3296	1492	1
3	3307	1496	1
3	3312	1500	1
3	3321	1504	1
3	3331	1508	1
3	3342	1512	1
3	3352	1516	1
3	3357	1520	1
3	3367	1524	1
3	3376	1528	1
3	3386	1532	1
3	3397	1536	1
3	3402	1540	1
3	3412	1544	1
3	3423	1548	1
3	3435	1552	1
3	3444	1556	1
3	3449	1560	1
3	3457	1564	1
3	3466	1568	1
3	3475	1572	1
3	3485	1576	1
3	3490	1580	1
3	3501	1584	1
3	3510	1588	1
3	3519	1592	1
3	3528	1596	1
3	3533	1600	1
3	3541	1604	1
3	3551	1608	1
3	3563	1612	1
3	3572	1616	1
3	3577	1620	1
3	3585	1624	1
3	3594	1628	1
3	3603	1632	1
3	3612	1636	1
3	3617	1640	1
3	3626	1644	1
3	3637	1648	1
3	3647	1652	1
3	3657	1656	1
3	3662	1660	1
3	3671	1664	1
3	3681	1668	1
3	3692	1672	1
3	3705	1676	1
3	3710	1680	1
3	3718	1684	1
3	3727	1688	1
3	3736	1692	1
3	3745	1696	1
3	3750	1700	1
3	3758	1704	1
3	3769	1708	1
3	3778	1712	1
3	3787	1716	1
3	3792	1720	1
3	3800	1724	1
3	3809	1728	1
3	3818	1732	1
3	3827	1736	1
3	3832	1740	1
3	3840	1744	1
3	3850	1748	1
3	3861	1752	1
3	3872	1756	1
3	3877	1760	1
3	3887	1764	1
3	3898	1768	1
3	3908	1772	1
3	3919	1776	1
3	3924	1780	1
3	3932	1784	1
3	3941	1788	1
3	3952	1792	1
3	3961	1796	1
3	3966	1800	1
3	3974	1804	1
3	3983	1808	1
3	3992	1812	1
3	4002	1816	1
3	4007	1820	1
3	4018	1824	1
3	4027	1828	1
3	4036	1832	1
3	4045	1836	1
3	4050	1840	1
3	4058	1844	1
3	4067	1848	1
3	4077	1852	1
3	4088	1856	1
3	4093	1860	1
3	4103	1864	1
3	4114	1868	1
3	4125	1872	1
3	4137	1876	1
3	4142	1880	1
3	4150	1884	1
3	4159	1888	1
3	4168	1892	1
3	4178	1896	1
3	4183	1900	1
3	4193	1904	1
3	4204	1908	1
3	4215	1912	1
3	4227	1916	1
3	4232	1920	1
3	4240	1924	1
3	4249	1928	1
3	4258	1932	1
3	4268	1936	1
3	4273	1940	1
3	4283	1944	1
3	4295	1948	1
3	4304	1952	1
3	4313	1956	1
3	4318	1960	1
3	4327	1964	1
3	4338	1968	1
3	4349	1972	1
3	4359	1976	1
3	4364	1980	1
3	4374	1984	1
3	4383	1988	1
3	4392	1992	1
3	4401	1996	1
3	4406	2000	1
3	4415	2004	1
3	4426	2008	1
3	4437	2012	1
3	4447	2016	1
3	4452	2020	1
3	4462	2024	1
3	4471	2028	1
3	4480	2032	1
3	4489	2036	1
3	4494	2040	1
3	4503	2044	1
3	4513	2048	1
3	4524	2052	1
3	4533	2056	1
3	4538	2060	1
3	4546	2064	1
3	4555	2068	1
3	4564	2072	1
3	4573	2076	1
3	4578	2080	1
3	4586	2084	1
3	4597	2088	1
3	4606	2092	1
3	4615	2096	1
3	4620	2100	1
3	4628	2104	1
3	4637	2108	1
3	4647	2112	1
3	4658	2116	1
3	4663	2120	1
3	4673	2124	1
3	4683	2128	1
3	4693	2132	1
3	4703	2136	1
3	4708	2140	1
3	4717	2144	1
3	4727	2148	1
3	4737	2152	1
3	4748	2156	1
3	4753	2160	1
3	4762	2164	1
3	4772	2168	1
3	4782	2172	1
3	4792	2176	1
3	4797	2180	1
3	4806	2184	1
3	4817	2188	1
3	4826	2192	1
3	4835	2196	1
3	4840	2200	1
3	4848	2204	1
3	4857	2208	1
3	4868	2212	1
3	4877	2216	1
3	4882	2220	1
3	4890	2224	1
3	4899	2228	1
3	4908	2232	1
3	4917	2236	1
3	4922	2240	1
3	4930	2244	1
3	4940	2248	1
3	4950	2252	1
3	4960	2256	1
3	4965	2260	1
3	4974	2264	1
3	4984	2268	1
3	4995	2272	1
3	5005	2276	1
3	5010	2280	1
3	5018	2284	1
3	5028	2288	1
3	5039	2292	1
3	5051	2296	1
3	5056	2300	1
3	5064	2304	1
3	5073	2308	1
3	5082	2312	1
3	5091	2316	1
3	5096	2320	1
3	5105	2324	1
3	5115	2328	1
3	5125	2332	1
3	5135	2336	1
3	5140	2340	1
3	5149	2344	1
3	5159	2348	1
3	5169	2352	1
3	5179	2356	1
3	5184	2360	1
3	5193	2364	1
3	5203	2368	1
3	5212	2372	1
3	5222	2376	1
3	5227	2380	1
3	5236	2384	1
3	5245	2388	1
3	5255	2392	1
3	5266	2396	1
3	5271	2400	1
3	5281	2404	1
3	5292	2408	1
3	5303	2412	1
3	5314	2416	1
3	5319	2420	1
3	5328	2424	1
3	5338	2428	1
3	5348	2432	1
3	5358	2436	1
3	5363	2440	1
3	5373	2444	1
3	5384	2448	1
3	5395	2452	1
3	5405	2456	1
3	5410	2460	1
3	5419	2464	1
3	5430	2468	1
3	5442	2472	1
3	5451	2476	1
3	5456	2480	1
3	5464	2484	1
3	5473	2488	1
3	5483	2492	1
3	5494	2496	1
3	5499	2500	1
3	5509	2504	1
3	5520	2508	1
3	5531	2512	1
3	5543	2516	1
3	5548	2520	1
3	5556	2524	1
3	5565	2528	1
3	5575	2532	1
3	5586	2536	1
3	5591	2540	1
3	5601	2544	1
3	5613	2548	1
3	5623	2552	1
3	5634	2556	1
3	5639	2560	1
3	5649	2564	1
3	5660	2568	1
3	5671	2572	1
3	5682	2576	1
3	5687	2580	1
3	5696	2584	1
3	5707	2588	1
3	5716	2592	1
3	5725	2596	1
3	5730	2600	1
3	5738	2604	1
3	5748	2608	1
3	5758	2612	1
3	5767	2616	1
3	5772	2620	1
3	5781	2624	1
3	5792	2628	1
3	5803	2632	1
3	5813	2636	1
3	5818	2640	1
3	5827	2644	1
3	5839	2648	1
3	5848	2652	1
3	5857	2656	1
3	5862	2660	1
3	5870	2664	1
3	5879	2668	1
3	5888	2672	1
3	5899	2676	1
3	5904	2680	1
3	5913	2684	1
3	5923	2688	1
3	5933	2692	1
3	5944	2696	1
3	5949	2700	1
3	5960	2704	1
3	5969	2708	1
3	5978	2712	1
3	5987	2716	1
3	5992	2720	1
3	6001	2724	1
3	6013	2728	1
3	6022	2732	1
3	6031	2736	1
3	6036	2740	1
3	6044	2744	1
3	6055	2748	1
3	6064	2752	1
3	6073	2756	1
3	6078	2760	1
3	6086	2764	1
3	6095	2768	1
3	6105	2772	1
3	6117	2776	1
3	6122	2780	1
3	6130	2784	1
3	6139	2788	1
3	6148	2792	1
3	6157	2796	1
3	6162	2800	1
3	6171	2804	1
3	6182	2808	1
3	6193	2812	1
3	6204	2816	1
3	6209	2820	1
3	6218	2824	1
3	6227	2828	1
3	6236	2832	1
3	6245	2836	1
3	6250	2840	1
3	6259	2844	1
3	6269	2848	1
3	6279	2852	1
3	6291	2856	1
3	6296	2860	1
3	6304	2864	1
3	6313	2868	1
3	6322	2872	1
3	6331	2876	1
3	6336	2880	1
3	6345	2884	1
3	6355	2888	1
3	6366	2892	1
3	6375	2896	1
3	6380	2900	1
3	6388	2904	1
3	6397	2908	1
3	6406	2912	1
3	6415	2916	1
3	6420	2920	1
3	6428	2924	1
3	6439	2928	1
3	6448	2932	1
3	6457	2936	1
3	6462	2940	1
3	6470	2944	1
3	6480	2948	1
3	6491	2952	1
3	6501	2956	1
3	6506	2960	1
3	6516	2964	1
3	6526	2968	1
3	6537	2972	1
3	6547	2976	1
3	6552	2980	1
3	6561	2984	1
3	6571	2988	1
3	6581	2992	1
3	6593	2996	1
3	6598	3000	1
3	6606	3004	1
3	6615	3008	1
3	6624	3012	1
3	6633	3016	1
3	6638	3020	1
3	6647	3024	1
3	6659	3028	1
3	6668	3032	1
3	6677	3036	1
3	6682	3040	1
3	6690	3044	1
3	6700	3048	1
3	6710	3052	1
3	6720	3056	1
3	6725	3060	1
3	6736	3064	1
3	6745	3068	1
3	6754	3072	1
3	6763	3076	1
3	6768	3080	1
3	6777	3084	1
3	6788	3088	1
3	6800	3092	1
3	6809	3096	1
3	6814	3100	1
3	6822	3104	1
3	6831	3108	1
3	6840	3112	1
3	6850	3116	1
3	6855	3120	1
3	6866	3124	1
3	6875	3128	1
3	6884	3132	1
3	6893	3136	1
3	6898	3140	1
3	6906	3144	1
3	6916	3148	1
3	6928	3152	1
3	6937	3156	1
3	6942	3160	1
3	6950	3164	1
3	6959	3168	1
3	6969	3172	1
3	6980	3176	1
3	6985	3180	1
3	6995	3184	1
3	7005	3188	1
3	7016	3192	1
3	7025	3196	1
3	7030	3200	1
3	7038	3204	1
3	7047	3208	1
3	7056	3212	1
3	7066	3216	1
3	7071	3220	1
3	7082	3224	1
3	7091	3228	1
3	7100	3232	1
3	7110	3236	1
3	7115	3240	1
3	7125	3244	1
3	7137	3248	1
3	7146	3252	1
3	7155	3256	1
3	7160	3260	1
3	7168	3264	1
3	7179	3268	1
3	7188	3272	1
3	7197	3276	1
3	7202	3280	1
3	7211	3284	1
3	7222	3288	1
3	7233	3292	1
3	7243	3296	1
3	7248	3300	1
3	7256	3304	1
3	7266	3308	1
3	7276	3312	1
3	7286	3316	1
3	7291	3320	1
3	7300	3324	1
3	7309	3328	1
3	7319	3332	1
3	7331	3336	1
3	7336	3340	1
3	7345	3344	1
3	7356	3348	1
3	7366	3352	1
3	7375	3356	1
3	7380	3360	1
3	7390	3364	1
3	7400	3368	1
3	7411	3372	1
3	7422	3376	1
3	7427	3380	1
3	7438	3384	1
3	7448	3388	1
3	7459	3392	1
3	7469	3396	1
3	7474	3400	1
3	7483	3404	1
3	7494	3408	1
3	7504	3412	1
3	7515	3416	1
3	7520	3420	1
3	7528	3424	1
3	7537	3428	1
3	7547	3432	1
3	7557	3436	1
3	7562	3440	1
3	7571	3444	1
3	7583	3448	1
3	7592	3452	1
3	7601	3456	1
3	7606	3460	1
3	7614	3464	1
3	7624	3468	1
3	7635	3472	1
3	7646	3476	1
3	7651	3480	1
3	7661	3484	1
3	7671	3488	1
3	7681	3492	1
3	7693	3496	1
3	7698	3500	1
3	7706	3504	1
3	7716	3508	1
3	7727	3512	1
3	7738	3516	1
3	7743	3520	1
3	7753	3524	1
3	7764	3528	1
3	7776	3532	1
3	7785	3536	1
3	7790	3540	1
3	7799	3544	1
3	7809	3548	1
3	7820	3552	1
3	7830	3556	1
3	7835	3560	1
3	7844	3564	1
3	7854	3568	1
3	7865	3572	1
3	7876	3576	1
3	7881	3580	1
3	7890	3584	1
3	7899	3588	1
3	7910	3592	1
3	7919	3596	1
3	7924	3600	1
4	5	5	0
4	17	10	0
4	26	15	0
4	35	20	0
4	49	25	1
4	60	30	1
4	72	35	0
4	82	40	1
4	97	45	1
4	108	50	1
4	118	55	0
4	128	60	1
4	144	65	0
4	154	70	1
4	165	75	1
4	177	80	0
4	191	85	1
4	202	90	1
4	212	95	0
4	222	100	1
4	239	105	0
4	248	110	0
4	257	115	0
4	267	120	1
4	282	125	1
4	293	130	1
4	306	135	0
4	315	140	0
4	329	145	1
4	339	150	0
4	349	155	1
4	361	160	0
4	375	165	1
4	385	170	0
4	396	175	0
4	406	180	1
4	421	185	1
4	432	190	1
4	445	195	0
4	454	200	0
4	467	205	0
4	476	210	0
4	485	215	0
4	494	220	0
4	508	225	1
4	520	230	0
4	529	235	0
4	540	240	0
4	554	245	1
4	565	250	1
4	576	255	1
4	587	260	1
4	602	265	1
4	615	270	0
4	624	275	0
4	633	280	0
4	646	285	0
4	655	290	0
4	664	295	0
4	675	300	0
4	688	305	0
4	698	310	1
4	709	315	1
4	720	320	1
4	735	325	1
4	746	330	1
4	757	335	1
4	769	340	0
4	782	345	0
4	791	350	0
4	801	355	1
4	813	360	0
4	826	365	0
4	835	370	0
4	845	375	1
4	857	380	0
4	870	385	0
4	879	390	0
4	888	395	0
4	898	400	1
4	913	405	1
4	924	410	1
4	935	415	1
4	947	420	0
4	960	425	0
4	969	430	0
4	978	435	0
4	989	440	0
4	1002	445	0
4	1011	450	0
4	1020	455	0
4	1029	460	0
4	1044	465	0
4	1053	470	0
4	1062	475	0
4	1071	480	0
4	1084	485	0
4	1095	490	0
4	1104	495	0
4	1113	500	0
4	1126	505	0
4	1135	510	0
4	1144	515	0
4	1154	520	1
4	1169	525	1
4	1181	530	0
4	1191	535	1
4	1202	540	1
4	1218	545	0
4	1227	550	0
4	1236	555	0
4	1245	560	0
4	1259	565	1
4	1271	570	0
4	1280	575	0
4	1289	580	0
4	1302	585	0
4	1311	590	0
4	1320	595	0
4	1329	600	0
4	1343	605	1
4	1354	610	1
4	1365	615	1
4	1376	620	1
4	1392	625	0
4	1402	630	1
4	1412	635	0
4	1421	640	0
4	1435	645	1
4	1445	650	0
4	1456	655	0
4	1465	660	0
4	1478	665	0
4	1487	670	0
4	1497	675	1
4	1508	680	1
4	1524	685	0
4	1533	690	0
4	1542	695	0
4	1552	700	1
4	1566	705	0
4	1577	710	0
4	1587	715	1
4	1598	720	1
4	1614	725	0
4	1623	730	0
4	1632	735	0
4	1641	740	0
4	1654	745	0
4	1665	750	0
4	1675	755	1
4	1686	760	1
4	1700	765	0
4	1710	770	1
4	1720	775	0
4	1730	780	1
4	1744	785	0
4	1755	790	0
4	1764	795	0
4	1773	800	0
4	1786	805	0
4	1796	810	1
4	1807	815	1
4	1819	820	0
4	1832	825	0
4	1841	830	0
4	1850	835	0
4	1860	840	1
4	1876	845	0
4	1885	850	0
4	1895	855	1
4	1907	860	0
4	1920	865	0
4	1929	870	0
4	1938	875	0
4	1947	880	0
4	1960	885	0
4	1970	890	1
4	1982	895	0
4	1991	900	0
4	2004	905	0
4	2014	910	1
4	2024	915	0
4	2034	920	1
4	2048	925	0
4	2059	930	0
4	2068	935	0
4	2077	940	0
4	2090	945	0
4	2100	950	1
4	2110	955	0
4	2120	960	1
4	2136	965	0
4	2146	970	1
4	2156	975	0
4	2168	980	0
4	2181	985	0
4	2190	990	0
4	2199	995	0
4	2209	1000	1
4	2225	1005	0
4	2234	1010	0
4	2243	1015	0
4	2253	1020	1
4	2268	1025	1
4	2279	1030	1
4	2292	1035	0
4	2301	1040	0
4	2314	1045	0
4	2323	1050	0
4	2333	1055	1
4	2345	1060	0
4	2358	1065	0
4	2367	1070	0
4	2377	1075	1
4	2388	1080	1
4	2404	1085	0
4	2413	1090	0
4	2424	1095	0
4	2433	1100	0
4	2447	1105	1
4	2458	1110	1
4	2469	1115	1
4	2479	1120	0
4	2493	1125	1
4	2504	1130	1
4	2514	1135	0
4	2524	1140	1
4	2539	1145	1
4	2551	1150	0
4	2560	1155	0
4	2569	1160	0
4	2582	1165	0
4	2591	1170	0
4	2600	1175	0
4	2610	1180	1
4	2626	1185	0
4	2635	1190	0
4	2644	1195	0
4	2654	1200	1
4	2669	1205	1
4	2679	1210	0
4	2688	1215	0
4	2697	1220	0
4	2710	1225	0
4	2720	1230	1
4	2731	1235	1
4	2743	1240	0
4	2756	1245	0
4	2765	1250	0
4	2774	1255	0
4	2783	1260	0
4	2796	1265	0
4	2806	1270	1
4	2817	1275	1
4	2829	1280	0
4	2842	1285	0
4	2851	1290	0
4	2861	1295	1
4	2872	1300	1
4	2886	1305	0
4	2897	1310	0
4	2906	1315	0
4	2915	1320	0
4	2928	1325	0
4	2937	1330	0
4	2946	1335	0
4	2956	1340	1
4	2970	1345	0
4	2980	1350	1
4	2991	1355	1
4	3002	1360	1
4	3017	1365	1
4	3029	1370	0
4	3038	1375	0
4	3047	1380	0
4	3061	1385	1
4	3071	1390	0
4	3083	1395	0
4	3092	1400	0
4	3105	1405	0
4	3114	1410	0
4	3123	1415	0
4	3132	1420	0
4	3145	1425	0
4	3155	1430	1
4	3165	1435	0
4	3175	1440	1
4	3192	1445	0
4	3201	1450	0
4	3210	1455	0
4	3220	1460	1
4	3235	1465	1
4	3245	1470	0
4	3256	1475	0
4	3265	1480	0
4	3278	1485	0
4	3287	1490	0
4	3297	1495	1
4	3308	1500	1
4	3322	1505	0
4	3332	1510	1
4	3343	1515	1
4	3353	1520	0
4	3368	1525	0
4	3377	1530	0
4	3387	1535	1
4	3398	1540	1
4	3413	1545	1
4	3424	1550	1
4	3436	1555	0
4	3445	1560	0
4	3458	1565	0
4	3467	1570	0
4	3476	1575	0
4	3486	1580	1
4	3502	1585	0
4	3511	1590	0
4	3520	1595	0
4	3529	1600	0
4	3542	1605	0
4	3552	1610	1
4	3564	1615	0
4	3573	1620	0
4	3586	1625	0
4	3595	1630	0
4	3604	1635	0
4	3613	1640	0
4	3627	1645	1
4	3638	1650	1
4	3648	1655	0
4	3658	1660	1
4	3672	1665	0
4	3682	1670	1
4	3693	1675	1
4	3706	1680	0
4	3719	1685	0
4	3728	1690	0
4	3737	1695	0
4	3746	1700	0
4	3759	1705	0
4	3770	1710	0
4	3779	1715	0
4	3788	1720	0
4	3801	1725	0
4	3810	1730	0
4	3819	1735	0
4	3828	1740	0
4	3841	1745	0
4	3851	1750	1
4	3862	1755	1
4	3873	1760	1
4	3888	1765	1
4	3899	1770	1
4	3909	1775	0
4	3920	1780	0
4	3933	1785	0
4	3942	1790	0
4	3953	1795	0
4	3962	1800	0
4	3975	1805	0
4	3984	1810	0
4	3993	1815	0
4	4003	1820	1
4	4019	1825	0
4	4028	1830	0
4	4037	1835	0
4	4046	1840	0
4	4059	1845	0
4	4068	1850	0
4	4078	1855	1
4	4089	1860	1
4	4104	1865	1
4	4115	1870	1
4	4126	1875	1
4	4138	1880	0
4	4151	1885	0
4	4160	1890	0
4	4169	1895	0
4	4179	1900	1
4	4194	1905	1
4	4205	1910	1
4	4216	1915	1
4	4228	1920	0
4	4241	1925	0
4	4250	1930	0
4	4259	1935	0
4	4269	1940	1
4	4284	1945	1
4	4296	1950	0
4	4305	1955	0
4	4314	1960	0
4	4328	1965	1
4	4339	1970	1
4	4350	1975	1
4	4360	1980	0
4	4375	1985	0
4	4384	1990	0
4	4393	1995	0
4	4402	2000	0
4	4416	2005	1
4	4427	2010	1
4	4438	2015	1
4	4448	2020	0
4	4463	2025	0
4	4472	2030	0
4	4481	2035	0
4	4490	2040	0
4	4504	2045	1
4	4514	2050	0
4	4525	2055	0
4	4534	2060	0
4	4547	2065	0
4	4556	2070	0
4	4565	2075	0
4	4574	2080	0
4	4587	2085	0
4	4598	2090	0
4	4607	2095	0
4	4616	2100	0
4	4629	2105	0
4	4638	2110	0
4	4648	2115	1
4	4659	2120	1
4	4674	2125	1
4	4684	2130	0
4	4694	2135	1
4	4704	2140	0
4	4718	2145	1
4	4728	2150	0
4	4738	2155	1
4	4749	2160	1
4	4763	2165	0
4	4773	2170	1
4	4783	2175	0
4	4793	2180	1
4	4807	2185	0
4	4818	2190	0
4	4827	2195	0
4	4836	2200	0
4	4849	2205	0
4	4858	2210	0
4	4869	2215	0
4	4878	2220	0
4	4891	2225	0
4	4900	2230	0
4	4909	2235	0
4	4918	2240	0
4	4931	2245	0
4	4941	2250	1
4	4951	2255	0
4	4961	2260	1
4	4975	2265	0
4	4985	2270	1
4	4996	2275	1
4	5006	2280	0
4	5019	2285	0
4	5029	2290	1
4	5040	2295	1
4	5052	2300	0
4	5065	2305	0
4	5074	2310	0
4	5083	2315	0
4	5092	2320	0
4	5106	2325	1
4	5116	2330	0
4	5126	2335	1
4	5136	2340	0
4	5150	2345	1
4	5160	2350	0
4	5170	2355	1
4	5180	2360	0
4	5194	2365	1
4	5204	2370	0
4	5213	2375	0
4	5223	2380	1
4	5237	2385	0
4	5246	2390	0
4	5256	2395	1
4	5267	2400	1
4	5282	2405	1
4	5293	2410	1
4	5304	2415	1
4	5315	2420	1
4	5329	2425	0
4	5339	2430	1
4	5349	2435	0
4	5359	2440	1
4	5374	2445	1
4	5385	2450	1
4	5396	2455	1
4	5406	2460	0
4	5420	2465	1
4	5431	2470	1
4	5443	2475	0
4	5452	2480	0
4	5465	2485	0
4	5474	2490	0
4	5484	2495	1
4	5495	2500	1
4	5510	2505	1
4	5521	2510	1
4	5532	2515	1
4	5544	2520	0
4	5557	2525	0
4	5566	2530	0
4	5576	2535	1
4	5587	2540	1
4	5602	2545	1
4	5614	2550	0
4	5624	2555	1
4	5635	2560	1
4	5650	2565	1
4	5661	2570	1
4	5672	2575	1
4	5683	2580	1
4	5697	2585	0
4	5708	2590	0
4	5717	2595	0
4	5726	2600	0
4	5739	2605	0
4	5749	2610	1
4	5759	2615	0
4	5768	2620	0
4	5782	2625	1
4	5793	2630	1
4	5804	2635	1
4	5814	2640	0
4	5828	2645	1
4	5840	2650	0
4	5849	2655	0
4	5858	2660	0
4	5871	2665	0
4	5880	2670	0
4	5889	2675	0
4	5900	2680	0
4	5914	2685	1
4	5924	2690	0
4	5934	2695	1
4	5945	2700	1
4	5961	2705	0
4	5970	2710	0
4	5979	2715	0
4	5988	2720	0
4	6002	2725	1
4	6014	2730	0
4	6023	2735	0
4	6032	2740	0
4	6045	2745	0
4	6056	2750	0
4	6065	2755	0
4	6074	2760	0
4	6087	2765	0
4	6096	2770	0
4	6106	2775	1
4	6118	2780	0
4	6131	2785	0
4	6140	2790	0
4	6149	2795	0
4	6158	2800	0
4	6172	2805	1
4	6183	2810	1
4	6194	2815	1
4	6205	2820	1
4	6219	2825	0
4	6228	2830	0
4	6237	2835	0
4	6246	2840	0
4	6260	2845	1
4	6270	2850	0
4	6280	2855	1
4	6292	2860	0
4	6305	2865	0
4	6314	2870	0
4	6323	2875	0
4	6332	2880	0
4	6346	2885	1
4	6356	2890	0
4	6367	2895	0
4	6376	2900	0
4	6389	2905	0
4	6398	2910	0
4	6407	2915	0
4	6416	2920	0
4	6429	2925	0
4	6440	2930	0
4	6449	2935	0
4	6458	2940	0
4	6471	2945	0
4	6481	2950	1
4	6492	2955	1
4	6502	2960	0
4	6517	2965	0
4	6527	2970	1
4	6538	2975	1
4	6548	2980	0
4	6562	2985	1
4	6572	2990	0
4	6582	2995	1
4	6594	3000	0
4	6607	3005	0
4	6616	3010	0
4	6625	3015	0
4	6634	3020	0
4	6648	3025	1
4	6660	3030	0
4	6669	3035	0
4	6678	3040	0
4	6691	3045	0
4	6701	3050	1
4	6711	3055	0
4	6721	3060	1
4	6737	3065	0
4	6746	3070	0
4	6755	3075	0
4	6764	3080	0
4	6778	3085	1
4	6789	3090	1
4	6801	3095	0
4	6810	3100	0
4	6823	3105	0
4	6832	3110	0
4	6841	3115	0
4	6851	3120	1
4	6867	3125	0
4	6876	3130	0
4	6885	3135	0
4	6894	3140	0
4	6907	3145	0
4	6917	3150	1
4	6929	3155	0
4	6938	3160	0
4	6951	3165	0
4	6960	3170	0
4	6970	3175	1
4	6981	3180	1
4	6996	3185	1
4	7006	3190	0
4	7017	3195	0
4	7026	3200	0
4	7039	3205	0
4	7048	3210	0
4	7057	3215	0
4	7067	3220	1
4	7083	3225	0
4	7092	3230	0
4	7101	3235	0
4	7111	3240	1
4	7126	3245	1
4	7138	3250	0
4	7147	3255	0
4	7156	3260	0
4	7169	3265	0
4	7180	3270	0
4	7189	3275	0
4	7198	3280	0
4	7212	3285	1
4	7223	3290	1
4	7234	3295	1
4	7244	3300	0
4	7257	3305	0
4	7267	3310	1
4	7277	3315	0
4	7287	3320	1
4	7301	3325	0
4	7310	3330	0
4	7320	3335	1
4	7332	3340	0
4	7346	3345	1
4	7357	3350	1
4	7367	3355	0
4	7376	3360	0
4	7391	3365	0
4	7401	3370	1
4	7412	3375	1
4	7423	3380	1
4	7439	3385	0
4	7449	3390	1
4	7460	3395	1
4	7470	3400	0
4	7484	3405	1
4	7495	3410	1
4	7505	3415	0
4	7516	3420	0
4	7529	3425	0
4	7538	3430	0
4	7548	3435	1
4	7558	3440	0
4	7572	3445	1
4	7584	3450	0
4	7593	3455	0
4	7602	3460	0
4	7615	3465	0
4	7625	3470	1
4	7636	3475	1
4	7647	3480	1
4	7662	3485	1
4	7672	3490	0
4	7682	3495	1
4	7694	3500	0
4	7707	3505	0
4	7717	3510	1
4	7728	3515	1
4	7739	3520	1
4	7754	3525	1
4	7765	3530	1
4	7777	3535	0
4	7786	3540	0
4	7800	3545	1
4	7810	3550	0
4	7821	3555	0
4	7831	3560	1
4	7845	3565	0
4	7855	3570	1
4	7866	3575	1
4	7877	3580	1
4	7891	3585	0
4	7900	3590	0
4	7911	3595	0
4	7920	3600	0
5	45	24	1
5	56	28	1
5	68	32	1
5	78	36	1
5	83	40	1
5	124	56	1
5	129	60	1
5	150	68	1
5	161	72	1
5	178	80	1
5	187	84	1
5	198	88	1
5	208	92	1
5	218	96	1
5	223	100	1
5	235	104	1
5	244	108	1
5	253	112	1
5	263	116	1
5	268	120	1
5	278	124	1
5	289	128	1
5	302	132	1
5	311	136	1
5	316	140	1
5	325	144	1
5	345	152	1
5	357	156	1
5	362	160	1
5	371	164	1
5	381	168	1
5	392	172	1
5	402	176	1
5	407	180	1
5	417	184	1
5	428	188	1
5	441	192	1
5	450	196	1
5	455	200	1
5	463	204	1
5	472	208	1
5	481	212	1
5	490	216	1
5	495	220	1
5	504	224	1
5	525	232	1
5	536	236	1
5	541	240	1
5	550	244	1
5	561	248	1
5	572	252	1
5	583	256	1
5	588	260	1
5	598	264	1
5	611	268	1
5	620	272	1
5	629	276	1
5	634	280	1
5	642	284	1
5	651	288	1
5	660	292	1
5	671	296	1
5	676	300	1
5	684	304	1
5	694	308	1
5	705	312	1
5	716	316	1
5	721	320	1
5	731	324	1
5	742	328	1
5	753	332	1
5	765	336	1
5	770	340	1
5	778	344	1
5	787	348	1
5	797	352	1
5	809	356	1
5	814	360	1
5	822	364	1
5	831	368	1
5	841	372	1
5	853	376	1
5	858	380	1
5	866	384	1
5	875	388	1
5	884	392	1
5	894	396	1
5	899	400	1
5	909	404	1
5	920	408	1
5	931	412	1
5	943	416	1
5	948	420	1
5	956	424	1
5	965	428	1
5	974	432	1
5	985	436	1
5	990	440	1
5	998	444	1
5	1007	448	1
5	1016	452	1
5	1025	456	1
5	1030	460	1
5	1040	464	1
5	1049	468	1
5	1058	472	1
5	1067	476	1
5	1072	480	1
5	1080	484	1
5	1091	488	1
5	1100	492	1
5	1109	496	1
5	1114	500	1
5	1122	504	1
5	1131	508	1
5	1140	512	1
5	1150	516	1
5	1155	520	1
5	1165	524	1
5	1177	528	1
5	1187	532	1
5	1198	536	1
5	1203	540	1
5	1214	544	1
5	1223	548	1
5	1232	552	1
5	1241	556	1
5	1246	560	1
5	1255	564	1
5	1267	568	1
5	1276	572	1
5	1285	576	1
5	1290	580	1
5	1298	584	1
5	1307	588	1
5	1316	592	1
5	1325	596	1
5	1330	600	1
5	1339	604	1
5	1350	608	1
5	1361	612	1
5	1372	616	1
5	1377	620	1
5	1388	624	1
5	1398	628	1
5	1408	632	1
5	1417	636	1
5	1422	640	1
5	1431	644	1
5	1441	648	1
5	1452	652	1
5	1461	656	1
5	1466	660	1
5	1474	664	1
5	1483	668	1
5	1493	672	1
5	1504	676	1
5	1509	680	1
5	1520	684	1
5	1529	688	1
5	1538	692	1
5	1548	696	1
5	1553	700	1
5	1562	704	1
5	1573	708	1
5	1583	712	1
5	1594	716	1
5	1599	720	1
5	1610	724	1
5	1619	728	1
5	1628	732	1
5	1637	736	1
5	1642	740	1
5	1650	744	1
5	1661	748	1
5	1671	752	1
5	1682	756	1
5	1687	760	1
5	1696	764	1
5	1706	768	1
5	1716	772	1
5	1726	776	1
5	1731	780	1
5	1740	784	1
5	1751	788	1
5	1760	792	1
5	1769	796	1
5	1774	800	1
5	1782	804	1
5	1792	808	1
5	1803	812	1
5	1815	816	1
5	1820	820	1
5	1828	824	1
5	1837	828	1
5	1846	832	1
5	1856	836	1
5	1861	840	1
5	1872	844	1
5	1881	848	1
5	1891	852	1
5	1903	856	1
5	1908	860	1
5	1916	864	1
5	1925	868	1
5	1934	872	1
5	1943	876	1
5	1948	880	1
5	1956	884	1
5	1966	888	1
5	1978	892	1
5	1987	896	1
5	1992	900	1
5	2000	904	1
5	2010	908	1
5	2020	912	1
5	2030	916	1
5	2035	920	1
5	2044	924	1
5	2055	928	1
5	2064	932	1
5	2073	936	1
5	2078	940	1
5	2086	944	1
5	2096	948	1
5	2106	952	1
5	2116	956	1
5	2121	960	1
5	2132	964	1
5	2142	968	1
5	2164	976	1
5	2169	980	1
5	2177	984	1
5	2186	988	1
5	2195	992	1
5	2205	996	1
5	2210	1000	1
5	2221	1004	1
5	2230	1008	1
5	2239	1012	1
5	2249	1016	1
5	2254	1020	1
5	2264	1024	1
5	2275	1028	1
5	2297	1036	1
5	2302	1040	1
5	2310	1044	1
5	2319	1048	1
5	2329	1052	1
5	2346	1060	1
5	2354	1064	1
5	2363	1068	1
5	2373	1072	1
5	2384	1076	1
5	2389	1080	1
5	2400	1084	1
5	2409	1088	1
5	2420	1092	1
5	2429	1096	1
5	2434	1100	1
5	2443	1104	1
5	2454	1108	1
5	2465	1112	1
5	2475	1116	1
5	2480	1120	1
5	2489	1124	1
5	2500	1128	1
5	2510	1132	1
5	2520	1136	1
5	2525	1140	1
5	2547	1148	1
5	2556	1152	1
5	2565	1156	1
5	2570	1160	1
5	2578	1164	1
5	2587	1168	1
5	2596	1172	1
5	2606	1176	1
5	2611	1180	1
5	2631	1188	1
5	2640	1192	1
5	2650	1196	1
5	2655	1200	1
5	2684	1212	1
5	2693	1216	1
5	2698	1220	1
5	2706	1224	1
5	2716	1228	1
5	2727	1232	1
5	2739	1236	1
5	2744	1240	1
5	2752	1244	1
5	2761	1248	1
5	2770	1252	1
5	2779	1256	1
5	2784	1260	1
5	2792	1264	1
5	2802	1268	1
5	2825	1276	1
5	2830	1280	1
5	2838	1284	1
5	2847	1288	1
5	2857	1292	1
5	2873	1300	1
5	2893	1308	1
5	2902	1312	1
5	2911	1316	1
5	2916	1320	1
5	2924	1324	1
5	2933	1328	1
5	2942	1332	1
5	2952	1336	1
5	2957	1340	1
5	2976	1348	1
5	2987	1352	1
5	2998	1356	1
5	3003	1360	1
5	3013	1364	1
5	3034	1372	1
5	3043	1376	1
5	3048	1380	1
5	3057	1384	1
5	3067	1388	1
5	3079	1392	1
5	3088	1396	1
5	3093	1400	1
5	3101	1404	1
5	3110	1408	1
5	3119	1412	1
5	3128	1416	1
5	3133	1420	1
5	3141	1424	1
5	3151	1428	1
5	3161	1432	1
5	3171	1436	1
5	3176	1440	1
5	3188	1444	1
5	3197	1448	1
5	3206	1452	1
5	3216	1456	1
5	3221	1460	1
5	3231	1464	1
5	3241	1468	1
5	3252	1472	1
5	3261	1476	1
5	3266	1480	1
5	3274	1484	1
5	3283	1488	1
5	3293	1492	1
5	3304	1496	1
5	3309	1500	1
5	3318	1504	1
5	3328	1508	1
5	3339	1512	1
5	3349	1516	1
5	3354	1520	1
5	3364	1524	1
5	3373	1528	1
5	3383	1532	1
5	3394	1536	1
5	3399	1540	1
5	3409	1544	1
5	3420	1548	1
5	3432	1552	1
5	3441	1556	1
5	3446	1560	1
5	3454	1564	1
5	3463	1568	1
5	3472	1572	1
5	3482	1576	1
5	3487	1580	1
5	3498	1584	1
5	3507	1588	1
5	3516	1592	1
5	3525	1596	1
5	3530	1600	1
5	3538	1604	1
5	3548	1608	1
5	3560	1612	1
5	3569	1616	1
5	3574	1620	1
5	3582	1624	1
5	3591	1628	1
5	3600	1632	1
5	3609	1636	1
5	3614	1640	1
5	3623	1644	1
5	3634	1648	1
5	3644	1652	1
5	3654	1656	1
5	3659	1660	1
5	3668	1664	1
5	3678	1668	1
5	3689	1672	1
5	3702	1676	1
5	3707	1680	1
5	3715	1684	1
5	3724	1688	1
5	3733	1692	1
5	3742	1696	1
5	3747	1700	1
5	3755	1704	1
5	3766	1708	1
5	3775	1712	1
5	3784	1716	1
5	3789	1720	1
5	3797	1724	1
5	3806	1728	1
5	3815	1732	1
5	3824	1736	1
5	3829	1740	1
5	3837	1744	1
5	3847	1748	1
5	3858	1752	1
5	3869	1756	1
5	3874	1760	1
5	3884	1764	1
5	3895	1768	1
5	3905	1772	1
5	3916	1776	1
5	3921	1780	1
5	3929	1784	1
5	3938	1788	1
5	3949	1792	1
5	3958	1796	1
5	3963	1800	1
5	3971	1804	1
5	3980	1808	1
5	3989	1812	1
5	3999	1816	1
5	4004	1820	1
5	4015	1824	1
5	4024	1828	1
5	4033	1832	1
5	4042	1836	1
5	4047	1840	1
5	4055	1844	1
5	4064	1848	1
5	4074	1852	1
5	4085	1856	1
5	4090	1860	1
5	4100	1864	1
5	4111	1868	1
5	4122	1872	1
5	4134	1876	1
5	4139	1880	1
5	4147	1884	1
5	4156	1888	1
5	4165	1892	1
5	4175	1896	1
5	4180	1900	1
5	4190	1904	1
5	4201	1908	1
5	4212	1912	1
5	4224	1916	1
5	4229	1920	1
5	4237	1924	1
5	4246	1928	1
5	4255	1932	1
5	4265	1936	1
5	4270	1940	1
5	4280	1944	1
5	4292	1948	1
5	4301	1952	1
5	4310	1956	1
5	4315	1960	1
5	4324	1964	1
5	4335	1968	1
5	4346	1972	1
5	4356	1976	1
5	4361	1980	1
5	4371	1984	1
5	4380	1988	1
5	4389	1992	1
5	4398	1996	1
5	4403	2000	1
5	4412	2004	1
5	4423	2008	1
5	4434	2012	1
5	4444	2016	1
5	4449	2020	1
5	4459	2024	1
5	4468	2028	1
5	4477	2032	1
5	4486	2036	1
5	4491	2040	1
5	4500	2044	1
5	4510	2048	1
5	4521	2052	1
5	4530	2056	1
5	4535	2060	1
5	4543	2064	1
5	4552	2068	1
5	4561	2072	1
5	4570	2076	1
5	4575	2080	1
5	4583	2084	1
5	4594	2088	1
5	4603	2092	1
5	4612	2096	1
5	4617	2100	1
5	4625	2104	1
5	4634	2108	1
5	4644	2112	1
5	4655	2116	1
5	4660	2120	1
5	4670	2124	1
5	4680	2128	1
5	4690	2132	1
5	4700	2136	1
5	4705	2140	1
5	4714	2144	1
5	4724	2148	1
5	4734	2152	1
5	4745	2156	1
5	4750	2160	1
5	4759	2164	1
5	4769	2168	1
5	4779	2172	1
5	4789	2176	1
5	4794	2180	1
5	4803	2184	1
5	4814	2188	1
5	4823	2192	1
5	4832	2196	1
5	4837	2200	1
5	4845	2204	1
5	4854	2208	1
5	4865	2212	1
5	4874	2216	1
5	4879	2220	1
5	4887	2224	1
5	4896	2228	1
5	4905	2232	1
5	4914	2236	1
5	4919	2240	1
5	4927	2244	1
5	4937	2248	1
5	4947	2252	1
5	4957	2256	1
5	4962	2260	1
5	4971	2264	1
5	4981	2268	1
5	4992	2272	1
5	5002	2276	1
5	5007	2280	1
5	5015	2284	1
5	5025	2288	1
5	5036	2292	1
5	5048	2296	1
5	5053	2300	1
5	5061	2304	1
5	5070	2308	1
5	5079	2312	1
5	5088	2316	1
5	5093	2320	1
5	5102	2324	1
5	5112	2328	1
5	5122	2332	1
5	5132	2336	1
5	5137	2340	1
5	5146	2344	1
5	5156	2348	1
5	5166	2352	1
5	5176	2356	1
5	5181	2360	1
5	5190	2364	1
5	5200	2368	1
5	5209	2372	1
5	5219	2376	1
5	5224	2380	1
5	5233	2384	1
5	5242	2388	1
5	5252	2392	1
5	5263	2396	1
5	5268	2400	1
5	5278	2404	1
5	5289	2408	1
5	5300	2412	1
5	5311	2416	1
5	5316	2420	1
5	5325	2424	1
5	5335	2428	1
5	5345	2432	1
5	5355	2436	1
5	5360	2440	1
5	5370	2444	1
5	5381	2448	1
5	5392	2452	1
5	5402	2456	1
5	5407	2460	1
5	5416	2464	1
5	5427	2468	1
5	5439	2472	1
5	5448	2476	1
5	5453	2480	1
5	5461	2484	1
5	5470	2488	1
5	5480	2492	1
5	5491	2496	1
5	5496	2500	1
5	5506	2504	1
5	5517	2508	1
5	5528	2512	1
5	5540	2516	1
5	5545	2520	1
5	5553	2524	1
5	5562	2528	1
5	5572	2532	1
5	5588	2540	1
5	5620	2552	1
5	5631	2556	1
5	5636	2560	1
5	5646	2564	1
5	5657	2568	1
5	5684	2580	1
5	5693	2584	1
5	5704	2588	1
5	5713	2592	1
5	5722	2596	1
5	5727	2600	1
5	5735	2604	1
5	5745	2608	1
5	5755	2612	1
5	5764	2616	1
5	5769	2620	1
5	5778	2624	1
5	5810	2636	1
5	5815	2640	1
5	5824	2644	1
5	5845	2652	1
5	5854	2656	1
5	5859	2660	1
5	5867	2664	1
5	5876	2668	1
5	5885	2672	1
5	5896	2676	1
5	5901	2680	1
5	5910	2684	1
5	5920	2688	1
5	5930	2692	1
5	5941	2696	1
5	5946	2700	1
5	5957	2704	1
5	5966	2708	1
5	5975	2712	1
5	5984	2716	1
5	5989	2720	1
5	5998	2724	1
5	6010	2728	1
5	6019	2732	1
5	6028	2736	1
5	6033	2740	1
5	6041	2744	1
5	6052	2748	1
5	6061	2752	1
5	6070	2756	1
5	6075	2760	1
5	6083	2764	1
5	6092	2768	1
5	6102	2772	1
5	6114	2776	1
5	6119	2780	1
5	6127	2784	1
5	6136	2788	1
5	6145	2792	1
5	6154	2796	1
5	6159	2800	1
5	6168	2804	1
5	6179	2808	1
5	6190	2812	1
5	6201	2816	1
5	6206	2820	1
5	6215	2824	1
5	6224	2828	1
5	6233	2832	1
5	6242	2836	1
5	6247	2840	1
5	6256	2844	1
5	6266	2848	1
5	6276	2852	1
5	6288	2856	1
5	6293	2860	1
5	6301	2864	1
5	6310	2868	1
5	6319	2872	1
5	6328	2876	1
5	6333	2880	1
5	6342	2884	1
5	6352	2888	1
5	6363	2892	1
5	6372	2896	1
5	6377	2900	1
5	6385	2904	1
5	6394	2908	1
5	6403	2912	1
5	6412	2916	1
5	6417	2920	1
5	6425	2924	1
5	6436	2928	1
5	6445	2932	1
5	6454	2936	1
5	6459	2940	1
5	6467	2944	1
5	6477	2948	1
5	6488	2952	1
5	6498	2956	1
5	6503	2960	1
5	6513	2964	1
5	6523	2968	1
5	6534	2972	1
5	6544	2976	1
5	6549	2980	1
5	6558	2984	1
5	6568	2988	1
5	6578	2992	1
5	6590	2996	1
5	6595	3000	1
5	6603	3004	1
5	6612	3008	1
5	6621	3012	1
5	6630	3016	1
5	6635	3020	1
5	6644	3024	1
5	6656	3028	1
5	6665	3032	1
5	6674	3036	1
5	6679	3040	1
5	6687	3044	1
5	6697	3048	1
5	6707	3052	1
5	6717	3056	1
5	6722	3060	1
5	6733	3064	1
5	6742	3068	1
5	6751	3072	1
5	6760	3076	1
5	6765	3080	1
5	6774	3084	1
5	6785	3088	1
5	6797	3092	1
5	6806	3096	1
5	6811	3100	1
5	6819	3104	1
5	6828	3108	1
5	6837	3112	1
5	6847	3116	1
5	6852	3120	1
5	6863	3124	1
5	6872	3128	1
5	6881	3132	1
5	6890	3136	1
5	6895	3140	1
5	6903	3144	1
5	6913	3148	1
5	6925	3152	1
5	6934	3156	1
5	6939	3160	1
5	6947	3164	1
5	6956	3168	1
5	6966	3172	1
5	6977	3176	1
5	6982	3180	1
5	6992	3184	1
5	7002	3188	1
5	7013	3192	1
5	7022	3196	1
5	7027	3200	1
5	7035	3204	1
5	7044	3208	1
5	7053	3212	1
5	7063	3216	1
5	7068	3220	1
5	7079	3224	1
5	7088	3228	1
5	7097	3232	1
5	7107	3236	1
5	7112	3240	1
5	7143	3252	1
5	7152	3256	1
5	7157	3260	1
5	7165	3264	1
5	7176	3268	1
5	7185	3272	1
5	7194	3276	1
5	7199	3280	1
5	7208	3284	1
5	7219	3288	1
5	7230	3292	1
5	7240	3296	1
5	7245	3300	1
5	7253	3304	1
5	7263	3308	1
5	7273	3312	1
5	7283	3316	1
5	7288	3320	1
5	7306	3328	1
5	7316	3332	1
5	7328	3336	1
5	7333	3340	1
5	7342	3344	1
5	7353	3348	1
5	7363	3352	1
5	7372	3356	1
5	7377	3360	1
5	7387	3364	1
5	7397	3368	1
5	7408	3372	1
5	7419	3376	1
5	7424	3380	1
5	7435	3384	1
5	7445	3388	1
5	7471	3400	1
5	7480	3404	1
5	7512	3416	1
5	7517	3420	1
5	7525	3424	1
5	7534	3428	1
5	7544	3432	1
5	7554	3436	1
5	7559	3440	1
5	7568	3444	1
5	7580	3448	1
5	7589	3452	1
5	7598	3456	1
5	7603	3460	1
5	7611	3464	1
5	7621	3468	1
5	7632	3472	1
5	7643	3476	1
5	7648	3480	1
5	7658	3484	1
5	7668	3488	1
5	7678	3492	1
5	7695	3500	1
5	7703	3504	1
5	7713	3508	1
5	7724	3512	1
5	7735	3516	1
5	7740	3520	1
5	7750	3524	1
5	7761	3528	1
5	7773	3532	1
5	7782	3536	1
5	7787	3540	1
5	7796	3544	1
5	7806	3548	1
5	7817	3552	1
5	7827	3556	1
5	7832	3560	1
5	7841	3564	1
5	7851	3568	1
5	7862	3572	1
5	7873	3576	1
5	7878	3580	1
5	7887	3584	1
5	7896	3588	1
5	7907	3592	1
5	7916	3596	1
5	7921	3600	1
6	46	24	1
6	57	28	1
6	79	36	1
6	84	40	1
6	94	44	1
6	105	48	1
6	115	52	1
6	125	56	1
6	130	60	1
6	141	64	1
6	151	68	1
6	174	76	1
6	179	80	1
6	188	84	1
6	199	88	1
6	209	92	1
6	219	96	1
6	224	100	1
6	236	104	1
6	245	108	1
6	254	112	1
6	264	116	1
6	269	120	1
6	279	124	1
6	290	128	1
6	312	136	1
6	317	140	1
6	326	144	1
6	336	148	1
6	346	152	1
6	358	156	1
6	363	160	1
6	372	164	1
6	393	172	1
6	403	176	1
6	408	180	1
6	418	184	1
6	429	188	1
6	442	192	1
6	451	196	1
6	456	200	1
6	464	204	1
6	473	208	1
6	482	212	1
6	491	216	1
6	496	220	1
6	505	224	1
6	517	228	1
6	526	232	1
6	537	236	1
6	542	240	1
6	551	244	1
6	562	248	1
6	573	252	1
6	584	256	1
6	589	260	1
6	599	264	1
6	612	268	1
6	621	272	1
6	630	276	1
6	635	280	1
6	643	284	1
6	652	288	1
6	661	292	1
6	672	296	1
6	677	300	1
6	685	304	1
6	695	308	1
6	722	320	1
6	771	340	1
6	779	344	1
6	788	348	1
6	798	352	1
6	810	356	1
6	815	360	1
6	823	364	1
6	832	368	1
6	842	372	1
6	854	376	1
6	859	380	1
6	867	384	1
6	876	388	1
6	885	392	1
6	895	396	1
6	900	400	1
6	944	416	1
6	949	420	1
6	957	424	1
6	966	428	1
6	975	432	1
6	986	436	1
6	991	440	1
6	999	444	1
6	1008	448	1
6	1017	452	1
6	1026	456	1
6	1031	460	1
6	1041	464	1
6	1050	468	1
6	1059	472	1
6	1068	476	1
6	1073	480	1
6	1081	484	1
6	1092	488	1
6	1101	492	1
6	1110	496	1
6	1115	500	1
6	1123	504	1
6	1132	508	1
6	1141	512	1
6	1151	516	1
6	1156	520	1
6	1166	524	1
6	1178	528	1
6	1188	532	1
6	1204	540	1
6	1224	548	1
6	1233	552	1
6	1242	556	1
6	1247	560	1
6	1256	564	1
6	1268	568	1
6	1277	572	1
6	1286	576	1
6	1291	580	1
6	1299	584	1
6	1308	588	1
6	1317	592	1
6	1326	596	1
6	1331	600	1
6	1340	604	1
6	1362	612	1
6	1378	620	1
6	1389	624	1
6	1399	628	1
6	1409	632	1
6	1418	636	1
6	1423	640	1
6	1432	644	1
6	1453	652	1
6	1462	656	1
6	1467	660	1
6	1475	664	1
6	1484	668	1
6	1494	672	1
6	1505	676	1
6	1510	680	1
6	1521	684	1
6	1530	688	1
6	1539	692	1
6	1549	696	1
6	1554	700	1
6	1563	704	1
6	1574	708	1
6	1584	712	1
6	1595	716	1
6	1600	720	1
6	1611	724	1
6	1620	728	1
6	1629	732	1
6	1638	736	1
6	1643	740	1
6	1651	744	1
6	1662	748	1
6	1672	752	1
6	1683	756	1
6	1688	760	1
6	1697	764	1
6	1707	768	1
6	1717	772	1
6	1727	776	1
6	1732	780	1
6	1741	784	1
6	1752	788	1
6	1761	792	1
6	1770	796	1
6	1775	800	1
6	1783	804	1
6	1793	808	1
6	1804	812	1
6	1816	816	1
6	1821	820	1
6	1829	824	1
6	1838	828	1
6	1847	832	1
6	1857	836	1
6	1862	840	1
6	1882	848	1
6	1892	852	1
6	1904	856	1
6	1909	860	1
6	1917	864	1
6	1926	868	1
6	1935	872	1
6	1944	876	1
6	1949	880	1
6	1957	884	1
6	1967	888	1
6	1979	892	1
6	1988	896	1
6	1993	900	1
6	2001	904	1
6	2011	908	1
6	2031	916	1
6	2036	920	1
6	2056	928	1
6	2065	932	1
6	2074	936	1
6	2079	940	1
6	2087	944	1
6	2097	948	1
6	2117	956	1
6	2122	960	1
6	2143	968	1
6	2153	972	1
6	2165	976	1
6	2170	980	1
6	2178	984	1
6	2187	988	1
6	2196	992	1
6	2206	996	1
6	2211	1000	1
6	2231	1008	1
6	2240	1012	1
6	2250	1016	1
6	2255	1020	1
6	2289	1032	1
6	2298	1036	1
6	2303	1040	1
6	2311	1044	1
6	2320	1048	1
6	2330	1052	1
6	2342	1056	1
6	2347	1060	1
6	2355	1064	1
6	2364	1068	1
6	2374	1072	1
6	2390	1080	1
6	2410	1088	1
6	2421	1092	1
6	2430	1096	1
6	2435	1100	1
6	2444	1104	1
6	2481	1120	1
6	2490	1124	1
6	2521	1136	1
6	2526	1140	1
6	2536	1144	1
6	2557	1152	1
6	2566	1156	1
6	2571	1160	1
6	2579	1164	1
6	2588	1168	1
6	2597	1172	1
6	2607	1176	1
6	2612	1180	1
6	2623	1184	1
6	2632	1188	1
6	2641	1192	1
6	2651	1196	1
6	2656	1200	1
6	2666	1204	1
6	2676	1208	1
6	2685	1212	1
6	2694	1216	1
6	2699	1220	1
6	2707	1224	1
6	2717	1228	1
6	2745	1240	1
6	2753	1244	1
6	2762	1248	1
6	2771	1252	1
6	2780	1256	1
6	2785	1260	1
6	2793	1264	1
6	2803	1268	1
6	2814	1272	1
6	2831	1280	1
6	2839	1284	1
6	2848	1288	1
6	2858	1292	1
6	2869	1296	1
6	2874	1300	1
6	2883	1304	1
6	2894	1308	1
6	2903	1312	1
6	2912	1316	1
6	2917	1320	1
6	2925	1324	1
6	2934	1328	1
6	2943	1332	1
6	2953	1336	1
6	2958	1340	1
6	2967	1344	1
6	2977	1348	1
6	3004	1360	1
6	3026	1368	1
6	3035	1372	1
6	3044	1376	1
6	3049	1380	1
6	3058	1384	1
6	3068	1388	1
6	3080	1392	1
6	3089	1396	1
6	3094	1400	1
6	3102	1404	1
6	3111	1408	1
6	3120	1412	1
6	3129	1416	1
6	3134	1420	1
6	3142	1424	1
6	3152	1428	1
6	3162	1432	1
6	3172	1436	1
6	3177	1440	1
6	3198	1448	1
6	3207	1452	1
6	3217	1456	1
6	3222	1460	1
6	3232	1464	1
6	3242	1468	1
6	3253	1472	1
6	3262	1476	1
6	3267	1480	1
6	3275	1484	1
6	3284	1488	1
6	3294	1492	1
6	3305	1496	1
6	3310	1500	1
6	3319	1504	1
6	3329	1508	1
6	3340	1512	1
6	3350	1516	1
6	3355	1520	1
6	3365	1524	1
6	3374	1528	1
6	3384	1532	1
6	3395	1536	1
6	3400	1540	1
6	3410	1544	1
6	3421	1548	1
6	3433	1552	1
6	3442	1556	1
6	3447	1560	1
6	3455	1564	1
6	3464	1568	1
6	3473	1572	1
6	3483	1576	1
6	3488	1580	1
6	3499	1584	1
6	3508	1588	1
6	3517	1592	1
6	3526	1596	1
6	3531	1600	1
6	3539	1604	1
6	3549	1608	1
6	3561	1612	1
6	3570	1616	1
6	3575	1620	1
6	3583	1624	1
6	3592	1628	1
6	3601	1632	1
6	3610	1636	1
6	3615	1640	1
6	3624	1644	1
6	3635	1648	1
6	3645	1652	1
6	3655	1656	1
6	3660	1660	1
6	3669	1664	1
6	3679	1668	1
6	3708	1680	1
6	3716	1684	1
6	3725	1688	1
6	3734	1692	1
6	3743	1696	1
6	3748	1700	1
6	3756	1704	1
6	3767	1708	1
6	3776	1712	1
6	3785	1716	1
6	3790	1720	1
6	3798	1724	1
6	3807	1728	1
6	3816	1732	1
6	3825	1736	1
6	3830	1740	1
6	3838	1744	1
6	3848	1748	1
6	3875	1760	1
6	3906	1772	1
6	3917	1776	1
6	3922	1780	1
6	3930	1784	1
6	3939	1788	1
6	3950	1792	1
6	3959	1796	1
6	3964	1800	1
6	3972	1804	1
6	3981	1808	1
6	3990	1812	1
6	4000	1816	1
6	4005	1820	1
6	4025	1828	1
6	4034	1832	1
6	4043	1836	1
6	4048	1840	1
6	4056	1844	1
6	4065	1848	1
6	4075	1852	1
6	4091	1860	1
6	4135	1876	1
6	4140	1880	1
6	4148	1884	1
6	4157	1888	1
6	4166	1892	1
6	4176	1896	1
6	4181	1900	1
6	4191	1904	1
6	4230	1920	1
6	4238	1924	1
6	4247	1928	1
6	4256	1932	1
6	4266	1936	1
6	4271	1940	1
6	4281	1944	1
6	4293	1948	1
6	4302	1952	1
6	4311	1956	1
6	4316	1960	1
6	4325	1964	1
6	4362	1980	1
6	4372	1984	1
6	4381	1988	1
6	4390	1992	1
6	4399	1996	1
6	4404	2000	1
6	4413	2004	1
6	4450	2020	1
6	4460	2024	1
6	4469	2028	1
6	4478	2032	1
6	4487	2036	1
6	4492	2040	1
6	4501	2044	1
6	4522	2052	1
6	4531	2056	1
6	4536	2060	1
6	4544	2064	1
6	4553	2068	1
6	4562	2072	1
6	4571	2076	1
6	4576	2080	1
6	4584	2084	1
6	4595	2088	1
6	4604	2092	1
6	4613	2096	1
6	4618	2100	1
6	4626	2104	1
6	4635	2108	1
6	4645	2112	1
6	4661	2120	1
6	4691	2132	1
6	4706	2140	1
6	4715	2144	1
6	4735	2152	1
6	4751	2160	1
6	4770	2168	1
6	4790	2176	1
6	4795	2180	1
6	4815	2188	1
6	4824	2192	1
6	4833	2196	1
6	4838	2200	1
6	4846	2204	1
6	4855	2208	1
6	4866	2212	1
6	4875	2216	1
6	4880	2220	1
6	4888	2224	1
6	4897	2228	1
6	4906	2232	1
6	4915	2236	1
6	4920	2240	1
6	4928	2244	1
6	4938	2248	1
6	4958	2256	1
6	4963	2260	1
6	4982	2268	1
6	5008	2280	1
6	5016	2284	1
6	5026	2288	1
6	5054	2300	1
6	5062	2304	1
6	5071	2308	1
6	5080	2312	1
6	5089	2316	1
6	5094	2320	1
6	5103	2324	1
6	5123	2332	1
6	5138	2340	1
6	5147	2344	1
6	5167	2352	1
6	5182	2360	1
6	5191	2364	1
6	5210	2372	1
6	5220	2376	1
6	5225	2380	1
6	5243	2388	1
6	5253	2392	1
6	5269	2400	1
6	5317	2420	1
6	5336	2428	1
[...]
8	2653	1196	1
8	2658	1200	1
8	2668	1204	1
8	2678	1208	1
8	2687	1212	1
8	2696	1216	1
8	2701	1220	1
8	2709	1224	1
8	2719	1228	1
8	2730	1232	1
8	2742	1236	1
8	2747	1240	1
8	2755	1244	1
8	2764	1248	1
8	2773	1252	1
8	2782	1256	1
8	2787	1260	1
8	2795	1264	1
8	2805	1268	1
8	2816	1272	1
8	2828	1276	1
8	2833	1280	1
8	2841	1284	1
8	2850	1288	1
8	2860	1292	1
8	2871	1296	1
8	2876	1300	1
8	2885	1304	1
8	2896	1308	1
8	2905	1312	1
8	2914	1316	1
8	2919	1320	1
8	2927	1324	1
8	2936	1328	1
8	2945	1332	1
8	2955	1336	1
8	2960	1340	1
8	2969	1344	1
8	2979	1348	1
8	2990	1352	1
8	3001	1356	1
8	3006	1360	1
8	3016	1364	1
8	3028	1368	1
8	3037	1372	1
8	3046	1376	1
8	3051	1380	1
8	3060	1384	1
8	3070	1388	1
8	3082	1392	1
8	3091	1396	1
8	3096	1400	1
8	3104	1404	1
8	3113	1408	1
8	3122	1412	1
8	3131	1416	1
8	3136	1420	1
8	3144	1424	1
8	3154	1428	1
8	3164	1432	1
8	3174	1436	1
8	3179	1440	1
8	3191	1444	1
8	3200	1448	1
8	3209	1452	1
8	3219	1456	1
8	3224	1460	1
8	3234	1464	1
8	3244	1468	1
8	3255	1472	1
8	3264	1476	1
8	3269	1480	1
8	3277	1484	1
8	3286	1488	1
8	3296	1492	1
8	3307	1496	1
8	3312	1500	1
8	3321	1504	1
8	3331	1508	1
8	3342	1512	1
8	3352	1516	1
8	3357	1520	1
8	3367	1524	1
8	3376	1528	1
8	3386	1532	1
8	3397	1536	1
8	3402	1540	1
8	3412	1544	1
8	3423	1548	1
8	3435	1552	1
8	3444	1556	1
8	3449	1560	1
8	3457	1564	1
8	3466	1568	1
8	3475	1572	1
8	3485	1576	1
8	3490	1580	1
8	3501	1584	1
8	3510	1588	1
8	3519	1592	1
8	3528	1596	1
8	3533	1600	1
8	3541	1604	1
8	3551	1608	1
8	3563	1612	1
8	3572	1616	1
8	3577	1620	1
8	3585	1624	1
8	3594	1628	1
8	3603	1632	1
8	3612	1636	1
8	3617	1640	1
8	3626	1644	1
8	3637	1648	1
8	3647	1652	1
8	3657	1656	1
8	3662	1660	1
8	3671	1664	1
8	3681	1668	1
8	3692	1672	1
8	3705	1676	1
8	3710	1680	1
8	3718	1684	1
8	3727	1688	1
8	3736	1692	1
8	3745	1696	1
8	3750	1700	1
8	3758	1704	1
8	3769	1708	1
8	3778	1712	1
8	3787	1716	1
8	3792	1720	1
8	3800	1724	1
8	3809	1728	1
8	3818	1732	1
8	3827	1736	1
8	3832	1740	1
8	3840	1744	1
8	3850	1748	1
8	3861	1752	1
8	3872	1756	1
8	3877	1760	1
8	3887	1764	1
8	3898	1768	1
8	3908	1772	1
8	3919	1776	1
8	3924	1780	1
8	3932	1784	1
8	3941	1788	1
8	3952	1792	1
8	3961	1796	1
8	3966	1800	1
8	3974	1804	1
8	3983	1808	1
8	3992	1812	1
8	4002	1816	1
8	4007	1820	1
8	4018	1824	1
8	4027	1828	1
8	4036	1832	1
8	4045	1836	1
8	4050	1840	1
8	4058	1844	1
8	4067	1848	1
8	4077	1852	1
8	4088	1856	1
8	4093	1860	1
8	4103	1864	1
8	4114	1868	1
8	4125	1872	1
8	4137	1876	1
8	4142	1880	1
8	4150	1884	1
8	4159	1888	1
8	4168	1892	1
8	4178	1896	1
8	4183	1900	1
8	4193	1904	1
8	4204	1908	1
8	4215	1912	1
8	4227	1916	1
8	4232	1920	1
8	4240	1924	1
8	4249	1928	1
8	4258	1932	1
8	4268	1936	1
8	4273	1940	1
8	4283	1944	1
8	4295	1948	1
8	4304	1952	1
8	4313	1956	1
8	4318	1960	1
8	4327	1964	1
8	4338	1968	1
8	4349	1972	1
8	4359	1976	1
8	4364	1980	1
8	4374	1984	1
8	4383	1988	1
8	4392	1992	1
8	4401	1996	1
8	4406	2000	1
8	4415	2004	1
8	4426	2008	1
8	4437	2012	1
8	4447	2016	1
8	4452	2020	1
8	4462	2024	1
8	4471	2028	1
8	4480	2032	1
8	4489	2036	1
8	4494	2040	1
8	4503	2044	1
8	4513	2048	1
8	4524	2052	1
8	4533	2056	1
8	4538	2060	1
8	4546	2064	1
8	4555	2068	1
8	4564	2072	1
8	4573	2076	1
8	4578	2080	1
8	4586	2084	1
8	4597	2088	1
8	4606	2092	1
8	4615	2096	1
8	4620	2100	1
8	4628	2104	1
8	4637	2108	1
8	4647	2112	1
8	4658	2116	1
8	4663	2120	1
8	4673	2124	1
8	4683	2128	1
8	4693	2132	1
8	4703	2136	1
8	4708	2140	1
8	4717	2144	1
8	4727	2148	1
8	4737	2152	1
8	4748	2156	1
8	4753	2160	1
8	4762	2164	1
8	4772	2168	1
8	4782	2172	1
8	4792	2176	1
8	4797	2180	1
8	4806	2184	1
8	4817	2188	1
8	4826	2192	1
8	4835	2196	1
8	4840	2200	1
8	4848	2204	1
8	4857	2208	1
8	4868	2212	1
8	4877	2216	1
8	4882	2220	1
8	4890	2224	1
8	4899	2228	1
8	4908	2232	1
8	4917	2236	1
8	4922	2240	1
8	4930	2244	1
8	4940	2248	1
8	4950	2252	1
8	4960	2256	1
8	4965	2260	1
8	4974	2264	1
8	4984	2268	1
8	4995	2272	1
8	5005	2276	1
8	5010	2280	1
8	5018	2284	1
8	5028	2288	1
8	5039	2292	1
8	5051	2296	1
8	5056	2300	1
8	5064	2304	1
8	5073	2308	1
8	5082	2312	1
8	5091	2316	1
8	5096	2320	1
8	5105	2324	1
8	5115	2328	1
8	5125	2332	1
8	5135	2336	1
8	5140	2340	1
8	5149	2344	1
8	5159	2348	1
8	5169	2352	1
8	5179	2356	1
8	5184	2360	1
8	5193	2364	1
8	5203	2368	1
8	5212	2372	1
8	5222	2376	1
8	5227	2380	1
8	5236	2384	1
8	5245	2388	1
8	5255	2392	1
8	5266	2396	1
8	5271	2400	1
8	5281	2404	1
8	5292	2408	1
8	5303	2412	1
8	5314	2416	1
8	5319	2420	1
8	5328	2424	1
8	5338	2428	1
8	5348	2432	1
8	5358	2436	1
8	5363	2440	1
8	5373	2444	1
8	5384	2448	1
8	5395	2452	1
8	5405	2456	1
8	5410	2460	1
8	5419	2464	1
8	5430	2468	1
8	5442	2472	1
8	5451	2476	1
8	5456	2480	1
8	5464	2484	1
8	5473	2488	1
8	5483	2492	1
8	5494	2496	1
8	5499	2500	1
8	5509	2504	1
8	5520	2508	1
8	5531	2512	1
8	5543	2516	1
8	5548	2520	1
8	5556	2524	1
8	5565	2528	1
8	5575	2532	1
8	5586	2536	1
8	5591	2540	1
8	5601	2544	1
8	5613	2548	1
8	5623	2552	1
8	5634	2556	1
8	5639	2560	1
8	5649	2564	1
8	5660	2568	1
8	5671	2572	1
8	5682	2576	1
8	5687	2580	1
8	5696	2584	1
8	5707	2588	1
8	5716	2592	1
8	5725	2596	1
8	5730	2600	1
8	5738	2604	1
8	5748	2608	1
8	5758	2612	1
8	5767	2616	1
8	5772	2620	1
8	5781	2624	1
8	5792	2628	1
8	5803	2632	1
8	5813	2636	1
8	5818	2640	1
8	5827	2644	1
8	5839	2648	1
8	5848	2652	1
8	5857	2656	1
8	5862	2660	1
8	5870	2664	1
8	5879	2668	1
8	5888	2672	1
8	5899	2676	1
8	5904	2680	1
8	5913	2684	1
8	5923	2688	1
8	5933	2692	1
8	5944	2696	1
8	5949	2700	1
8	5960	2704	1
8	5969	2708	1
8	5978	2712	1
8	5987	2716	1
8	5992	2720	1
8	6001	2724	1
8	6013	2728	1
8	6022	2732	1
8	6031	2736	1
8	6036	2740	1
8	6044	2744	1
8	6055	2748	1
8	6064	2752	1
8	6073	2756	1
8	6078	2760	1
8	6086	2764	1
8	6095	2768	1
8	6105	2772	1
8	6117	2776	1
8	6122	2780	1
8	6130	2784	1
8	6139	2788	1
8	6148	2792	1
8	6157	2796	1
8	6162	2800	1
8	6171	2804	1
8	6182	2808	1
8	6193	2812	1
8	6204	2816	1
8	6209	2820	1
8	6218	2824	1
8	6227	2828	1
8	6236	2832	1
8	6245	2836	1
8	6250	2840	1
8	6259	2844	1
8	6269	2848	1
8	6279	2852	1
8	6291	2856	1
8	6296	2860	1
8	6304	2864	1
8	6313	2868	1
8	6322	2872	1
8	6331	2876	1
8	6336	2880	1
8	6345	2884	1
8	6355	2888	1
8	6366	2892	1
8	6375	2896	1
8	6380	2900	1
8	6388	2904	1
8	6397	2908	1
8	6406	2912	1
8	6415	2916	1
8	6420	2920	1
8	6428	2924	1
8	6439	2928	1
8	6448	2932	1
8	6457	2936	1
8	6462	2940	1
8	6470	2944	1
8	6480	2948	1
8	6491	2952	1
8	6501	2956	1
8	6506	2960	1
8	6516	2964	1
8	6526	2968	1
8	6537	2972	1
8	6547	2976	1
8	6552	2980	1
8	6561	2984	1
8	6571	2988	1
8	6581	2992	1
8	6593	2996	1
8	6598	3000	1
8	6606	3004	1
8	6615	3008	1
8	6624	3012	1
8	6633	3016	1
8	6638	3020	1
8	6647	3024	1
8	6659	3028	1
8	6668	3032	1
8	6677	3036	1
8	6682	3040	1
8	6690	3044	1
8	6700	3048	1
8	6710	3052	1
8	6720	3056	1
8	6725	3060	1
8	6736	3064	1
8	6745	3068	1
8	6754	3072	1
8	6763	3076	1
8	6768	3080	1
8	6777	3084	1
8	6788	3088	1
8	6800	3092	1
8	6809	3096	1
8	6814	3100	1
8	6822	3104	1
8	6831	3108	1
8	6840	3112	1
8	6850	3116	1
8	6855	3120	1
8	6866	3124	1
8	6875	3128	1
8	6884	3132	1
8	6893	3136	1
8	6898	3140	1
8	6906	3144	1
8	6916	3148	1
8	6928	3152	1
8	6937	3156	1
8	6942	3160	1
8	6950	3164	1
8	6959	3168	1
8	6969	3172	1
8	6980	3176	1
8	6985	3180	1
8	6995	3184	1
8	7005	3188	1
8	7016	3192	1
8	7025	3196	1
8	7030	3200	1
8	7038	3204	1
8	7047	3208	1
8	7056	3212	1
8	7066	3216	1
8	7071	3220	1
8	7082	3224	1
8	7091	3228	1
8	7100	3232	1
8	7110	3236	1
8	7115	3240	1
8	7125	3244	1
8	7137	3248	1
8	7146	3252	1
8	7155	3256	1
8	7160	3260	1
8	7168	3264	1
8	7179	3268	1
8	7188	3272	1
8	7197	3276	1
8	7202	3280	1
8	7211	3284	1
8	7222	3288	1
8	7233	3292	1
8	7243	3296	1
8	7248	3300	1
8	7256	3304	1
8	7266	3308	1
8	7276	3312	1
8	7286	3316	1
8	7291	3320	1
8	7300	3324	1
8	7309	3328	1
8	7319	3332	1
8	7331	3336	1
8	7336	3340	1
8	7345	3344	1
8	7356	3348	1
8	7366	3352	1
8	7375	3356	1
8	7380	3360	1
8	7390	3364	1
8	7400	3368	1
8	7411	3372	1
8	7422	3376	1
8	7427	3380	1
8	7438	3384	1
8	7448	3388	1
8	7459	3392	1
8	7469	3396	1
8	7474	3400	1
8	7483	3404	1
8	7494	3408	1
8	7504	3412	1
8	7515	3416	1
8	7520	3420	1
8	7528	3424	1
8	7537	3428	1
8	7547	3432	1
8	7557	3436	1
8	7562	3440	1
8	7571	3444	1
8	7583	3448	1
8	7592	3452	1
8	7601	3456	1
8	7606	3460	1
8	7614	3464	1
8	7624	3468	1
8	7635	3472	1
8	7646	3476	1
8	7651	3480	1
8	7661	3484	1
8	7671	3488	1
8	7681	3492	1
8	7693	3496	1
8	7698	3500	1
8	7706	3504	1
8	7716	3508	1
8	7727	3512	1
8	7738	3516	1
8	7743	3520	1
8	7753	3524	1
8	7764	3528	1
8	7776	3532	1
8	7785	3536	1
8	7790	3540	1
8	7799	3544	1
8	7809	3548	1
8	7820	3552	1
8	7830	3556	1
8	7835	3560	1
8	7844	3564	1
8	7854	3568	1
8	7865	3572	1
8	7876	3576	1
8	7881	3580	1
8	7890	3584	1
8	7899	3588	1
8	7910	3592	1
8	7919	3596	1
8	7924	3600	1
9	51	25	1
9	273	120	1
9	284	125	1
9	351	155	1
9	423	185	1
9	1160	520	1
9	1171	525	1
9	1261	565	1
9	1356	610	1
9	1382	620	1
9	1404	630	1
9	1499	675	1
9	1514	680	1
9	1589	715	1
9	1604	720	1
9	1677	755	1
9	1692	760	1
9	1712	770	1
9	1736	780	1
9	1809	815	1
10	51	25	21
10	273	120	112
10	284	125	113
10	351	155	139
10	423	185	165
10	1160	520	492
10	1171	525	401
10	1261	565	437
10	1356	610	454
10	1382	620	432
10	1404	630	106
10	1499	675	147
10	1514	680	112
10	1589	715	103
10	1604	720	96
10	1677	755	123
10	1692	760	84
10	1712	770	86
10	1736	780	64
10	1809	815	91
11	51	25	1
11	273	120	1
11	284	125	1
11	351	155	1
11	423	185	1
11	1160	520	1
11	1171	525	1
11	1261	565	1
11	1356	610	1
11	1382	620	1
11	1404	630	1
11	1499	675	1
11	1514	680	1
11	1589	715	1
11	1604	720	1
11	1677	755	1
11	1692	760	1
11	1712	770	1
11	1736	780	1
11	1809	815	1
12	62	30	1
12	156	70	1
12	295	130	1
12	377	165	1
12	700	310	1
12	711	315	1
12	726	320	1
12	737	325	1
12	748	330	1
12	759	335	1
12	904	400	1
12	915	405	1
12	926	410	1
12	1193	535	1
12	1208	540	1
12	1345	605	1
12	1367	615	1
12	1437	645	1
12	1866	840	1
12	2016	910	1
12	2040	920	1
12	2102	950	1
12	2126	960	1
12	2215	1000	1
12	2259	1020	1
12	2270	1025	1
12	2379	1075	1
12	2394	1080	1
12	2449	1105	1
12	2460	1110	1
12	2471	1115	1
12	2495	1125	1
12	2506	1130	1
12	2541	1145	1
12	2722	1230	1
12	2733	1235	1
12	2819	1275	1
12	2982	1350	1
12	2993	1355	1
12	3008	1360	1
12	3181	1440	1
12	3684	1670	1
12	3695	1675	1
12	3853	1750	1
12	3864	1755	1
12	3879	1760	1
12	3890	1765	1
12	4009	1820	1
12	4080	1855	1
12	4095	1860	1
12	4106	1865	1
12	4117	1870	1
12	4196	1905	1
12	4207	1910	1
12	4218	1915	1
12	4330	1965	1
12	4341	1970	1
12	4352	1975	1
12	4418	2005	1
12	4429	2010	1
12	4440	2015	1
12	4506	2045	1
12	4650	2115	1
12	4665	2120	1
12	4676	2125	1
12	4696	2135	1
12	4720	2145	1
12	4740	2155	1
12	4755	2160	1
12	4775	2170	1
12	4799	2180	1
12	4943	2250	1
12	4967	2260	1
12	4987	2270	1
12	4998	2275	1
12	5031	2290	1
12	5042	2295	1
12	5108	2325	1
12	5128	2335	1
12	5152	2345	1
12	5172	2355	1
12	5196	2365	1
12	5229	2380	1
12	5258	2395	1
12	5273	2400	1
12	5284	2405	1
12	5295	2410	1
12	5306	2415	1
12	5321	2420	1
12	5341	2430	1
12	5365	2440	1
12	5387	2450	1
12	5422	2465	1
12	5486	2495	1
12	5523	2510	1
12	5534	2515	1
12	5916	2685	1
12	5936	2695	1
12	5951	2700	1
12	6282	2855	1
12	6348	2885	1
12	6483	2950	1
12	6494	2955	1
12	6564	2985	1
12	6584	2995	1
12	6703	3050	1
12	6791	3090	1
12	6857	3120	1
12	6919	3150	1
12	6972	3175	1
12	6998	3185	1
12	7348	3345	1
12	7359	3350	1
12	7550	3435	1
12	7574	3445	1
12	7653	3480	1
12	7719	3510	1
12	7745	3520	1
12	7756	3525	1
12	7767	3530	1
12	7837	3560	1
12	7857	3570	1
12	7868	3575	1
12	7883	3580	1
13	62	30	26
13	156	70	62
13	295	130	118
13	377	165	149
13	700	310	290
13	711	315	283
13	726	320	248
13	737	325	193
13	748	330	162
13	759	335	23
13	904	400	84
13	915	405	81
13	926	410	82
13	1193	535	203
13	1208	540	204
13	1345	605	201
13	1367	615	207
13	1437	645	233
13	1866	840	304
13	2016	910	366
13	2040	920	312
13	2102	950	334
13	2126	960	312
13	2215	1000	156
13	2259	1020	108
13	2270	1025	101
13	2379	1075	123
13	2394	1080	116
13	2449	1105	101
13	2460	1110	86
13	2471	1115	87
13	2495	1125	49
13	2506	1130	46
13	2541	1145	37
13	2722	1230	118
13	2733	1235	119
13	2819	1275	147
13	2982	1350	218
13	2993	1355	207
13	3008	1360	128
13	3181	1440	204
13	3684	1670	394
13	3695	1675	323
13	3853	1750	394
13	3864	1755	391
13	3879	1760	316
13	3890	1765	93
13	4009	1820	144
13	4080	1855	103
13	4095	1860	104
13	4106	1865	101
13	4117	1870	102
13	4196	1905	81
13	4207	1910	54
13	4218	1915	51
13	4330	1965	97
13	4341	1970	98
13	4352	1975	67
13	4418	2005	93
13	4429	2010	94
13	4440	2015	47
13	4506	2045	73
13	4650	2115	139
13	4665	2120	112
13	4676	2125	113
13	4696	2135	119
13	4720	2145	97
13	4740	2155	39
13	4755	2160	36
13	4775	2170	42
13	4799	2180	44
13	4943	2250	102
13	4967	2260	104
13	4987	2270	106
13	4998	2275	103
13	5031	2290	106
13	5042	2295	43
13	5108	2325	61
13	5128	2335	63
13	5152	2345	69
13	5172	2355	63
13	5196	2365	69
13	5229	2380	52
13	5258	2395	59
13	5273	2400	52
13	5284	2405	49
13	5295	2410	42
13	5306	2415	31
13	5321	2420	24
13	5341	2430	26
13	5365	2440	32
13	5387	2450	38
13	5422	2465	49
13	5486	2495	71
13	5523	2510	78
13	5534	2515	71
13	5916	2685	233
13	5936	2695	227
13	5951	2700	204
13	6282	2855	343
13	6348	2885	369
13	6483	2950	262
13	6494	2955	259
13	6564	2985	281
13	6584	2995	139
13	6703	3050	162
13	6791	3090	138
13	6857	3120	164
13	6919	3150	162
13	6972	3175	179
13	6998	3185	133
13	7348	3345	253
13	7359	3350	226
13	7550	3435	283
13	7574	3445	269
13	7653	3480	292
13	7719	3510	162
13	7745	3520	168
13	7756	3525	89
13	7767	3530	82
13	7837	3560	76
13	7857	3570	58
13	7868	3575	51
13	7883	3580	52
14	62	30	1
14	156	70	1
14	295	130	1
14	377	165	1
14	700	310	1
14	711	315	1
14	726	320	1
14	737	325	1
14	748	330	1
14	759	335	1
14	904	400	1
14	915	405	1
14	926	410	1
14	1193	535	1
14	1208	540	1
14	1345	605	1
14	1367	615	1
14	1437	645	1
14	1866	840	1
14	2016	910	1
14	2040	920	1
14	2102	950	1
14	2126	960	1
14	2215	1000	1
14	2259	1020	1
14	2270	1025	1
14	2379	1075	1
14	2394	1080	1
14	2449	1105	1
14	2460	1110	1
14	2471	1115	1
14	2495	1125	1
14	2506	1130	1
14	2541	1145	1
14	2722	1230	1
14	2733	1235	1
14	2819	1275	1
14	2982	1350	1
14	2993	1355	1
14	3008	1360	1
14	3181	1440	1
14	3684	1670	1
14	3695	1675	1
14	3853	1750	1
14	3864	1755	1
14	3879	1760	1
14	3890	1765	1
14	4009	1820	1
14	4080	1855	1
14	4095	1860	1
14	4106	1865	1
14	4117	1870	1
14	4196	1905	1
14	4207	1910	1
14	4218	1915	1
14	4330	1965	1
14	4341	1970	1
14	4352	1975	1
14	4418	2005	1
14	4429	2010	1
14	4440	2015	1
14	4506	2045	1
14	4650	2115	1
14	4665	2120	1
14	4676	2125	1
14	4696	2135	1
14	4720	2145	1
14	4740	2155	1
14	4755	2160	1
14	4775	2170	1
14	4799	2180	1
14	4943	2250	1
14	4967	2260	1
14	4987	2270	1
14	4998	2275	1
14	5031	2290	1
14	5042	2295	1
14	5108	2325	1
14	5128	2335	1
14	5152	2345	1
14	5172	2355	1
14	5196	2365	1
14	5229	2380	1
14	5258	2395	1
14	5273	2400	1
14	5284	2405	1
14	5295	2410	1
14	5306	2415	1
14	5321	2420	1
14	5341	2430	1
14	5365	2440	1
14	5387	2450	1
14	5422	2465	1
14	5486	2495	1
14	5523	2510	1
14	5534	2515	1
14	5916	2685	1
14	5936	2695	1
14	5951	2700	1
14	6282	2855	1
14	6348	2885	1
14	6483	2950	1
14	6494	2955	1
14	6564	2985	1
14	6584	2995	1
14	6703	3050	1
14	6791	3090	1
14	6857	3120	1
14	6919	3150	1
14	6972	3175	1
14	6998	3185	1
14	7348	3345	1
14	7359	3350	1
14	7550	3435	1
14	7574	3445	1
14	7653	3480	1
14	7719	3510	1
14	7745	3520	1
14	7756	3525	1
14	7767	3530	1
14	7837	3560	1
14	7857	3570	1
14	7868	3575	1
14	7883	3580	1
15	88	40	1
15	99	45	1
15	110	50	1
15	134	60	1
15	167	75	1
15	331	145	1
15	510	225	1
15	2148	970	1
15	2281	1030	1
15	2335	1055	1
15	2530	1140	1
15	2616	1180	1
15	2660	1200	1
15	2671	1205	1
15	2808	1270	1
15	2863	1295	1
15	2878	1300	1
15	2962	1340	1
15	3019	1365	1
15	5578	2535	1
15	5593	2540	1
15	5604	2545	1
15	5663	2570	1
15	5674	2575	1
15	5784	2625	1
15	5795	2630	1
15	5830	2645	1
15	7117	3240	1
15	7128	3245	1
15	7293	3320	1
15	7451	3390	1
15	7462	3395	1
15	7486	3405	1
15	7497	3410	1
15	7684	3495	1
16	88	40	36
16	99	45	37
16	110	50	38
16	134	60	44
16	167	75	55
16	331	145	101
16	510	225	177
16	2148	970	918
16	2281	1030	966
16	2335	1055	979
16	2530	1140	992
16	2616	1180	952
16	2660	1200	228
16	2671	1205	173
16	2808	1270	214
16	2863	1295	151
16	2878	1300	116
16	2962	1340	136
16	3019	1365	157
16	5578	2535	1263
16	5593	2540	1244
16	5604	2545	1241
16	5663	2570	1226
16	5674	2575	1207
16	5784	2625	89
16	5795	2630	86
16	5830	2645	97
16	7117	3240	668
16	7128	3245	669
16	7293	3320	692
16	7451	3390	758
16	7462	3395	747
16	7486	3405	161
16	7497	3410	162
16	7684	3495	171
17	88	40	1
17	99	45	1
17	110	50	1
17	134	60	1
17	167	75	1
17	331	145	1
17	510	225	1
17	2148	970	1
17	2281	1030	1
17	2335	1055	1
17	2530	1140	1
17	2616	1180	1
17	2660	1200	1
17	2671	1205	1
17	2808	1270	1
17	2863	1295	1
17	2878	1300	1
17	2962	1340	1
17	3019	1365	1
17	5578	2535	1
17	5593	2540	1
17	5604	2545	1
17	5663	2570	1
17	5674	2575	1
17	5784	2625	1
17	5795	2630	1
17	5830	2645	1
17	7117	3240	1
17	7128	3245	1
17	7293	3320	1
17	7451	3390	1
17	7462	3395	1
17	7486	3405	1
17	7497	3410	1
17	7684	3495	1
18	193	85	1
18	204	90	1
18	228	100	1
18	412	180	1
18	434	190	1
18	556	245	1
18	567	250	1
18	578	255	1
18	593	260	1
18	604	265	1
18	803	355	1
18	847	375	1
18	937	415	1
18	1558	700	1
18	1798	810	1
18	1897	855	1
18	1972	890	1
18	3063	1385	1
18	3157	1430	1
18	3226	1460	1
18	3237	1465	1
18	3299	1495	1
18	3314	1500	1
18	3334	1510	1
18	3345	1515	1
18	3389	1535	1
18	3404	1540	1
18	3415	1545	1
18	3426	1550	1
18	3492	1580	1
18	3554	1610	1
18	3629	1645	1
18	3640	1650	1
18	3664	1660	1
18	3901	1770	1
18	4128	1875	1
18	4185	1900	1
18	4275	1940	1
18	4286	1945	1
18	5376	2445	1
18	5398	2455	1
18	5433	2470	1
18	5501	2500	1
18	5512	2505	1
18	5626	2555	1
18	5641	2560	1
18	5652	2565	1
18	5689	2580	1
18	5751	2610	1
18	5806	2635	1
18	6004	2725	1
18	6108	2775	1
18	6174	2805	1
18	6185	2810	1
18	6196	2815	1
18	6211	2820	1
18	6262	2845	1
18	6529	2970	1
18	6540	2975	1
18	6650	3025	1
18	6727	3060	1
18	6780	3085	1
18	6987	3180	1
18	7073	3220	1
18	7214	3285	1
18	7225	3290	1
18	7236	3295	1
18	7269	3310	1
18	7322	3335	1
18	7403	3370	1
18	7414	3375	1
18	7429	3380	1
18	7627	3470	1
18	7638	3475	1
18	7664	3485	1
18	7730	3515	1
18	7802	3545	1
19	193	85	81
19	204	90	82
19	228	100	88
19	412	180	164
19	434	190	170
19	556	245	157
19	567	250	158
19	578	255	151
19	593	260	76
19	604	265	73
19	803	355	107
19	847	375	123
19	937	415	159
19	1558	700	436
19	1798	810	542
19	1897	855	499
19	1972	890	514
19	3063	1385	969
19	3157	1430	726
19	3226	1460	648
19	3237	1465	609
19	3299	1495	603
19	3314	1500	112
19	3334	1510	78
19	3345	1515	51
19	3389	1535	67
19	3404	1540	44
19	3415	1545	41
19	3426	1550	38
19	3492	1580	64
19	3554	1610	74
19	3629	1645	101
19	3640	1650	102
19	3664	1660	108
19	3901	1770	186
19	4128	1875	263
19	4185	1900	252
19	4275	1940	288
19	4286	1945	281
19	5376	2445	673
19	5398	2455	579
19	5433	2470	566
19	5501	2500	556
19	5512	2505	557
19	5626	2555	107
19	5641	2560	104
19	5652	2565	93
19	5689	2580	76
19	5751	2610	102
19	5806	2635	79
19	6004	2725	161
19	6108	2775	207
19	6174	2805	221
19	6185	2810	198
19	6196	2815	179
19	6211	2820	92
19	6262	2845	69
19	6529	2970	162
19	6540	2975	163
19	6650	3025	209
19	6727	3060	236
19	6780	3085	237
19	6987	3180	208
19	7073	3220	244
19	7214	3285	257
19	7225	3290	226
19	7236	3295	207
19	7269	3310	126
19	7322	3335	111
19	7403	3370	82
19	7414	3375	83
19	7429	3380	84
19	7627	3470	158
19	7638	3475	139
19	7664	3485	113
19	7730	3515	139
19	7802	3545	161
20	193	85	1
20	204	90	1
20	228	100	1
20	412	180	1
20	434	190	1
20	556	245	1
20	567	250	1
20	578	255	1
20	593	260	1
20	604	265	1
20	803	355	1
20	847	375	1
20	937	415	1
20	1558	700	1
20	1798	810	1
20	1897	855	1
20	1972	890	1
20	3063	1385	1
20	3157	1430	1
20	3226	1460	1
20	3237	1465	1
20	3299	1495	1
20	3314	1500	1
20	3334	1510	1
20	3345	1515	1
20	3389	1535	1
20	3404	1540	1
20	3415	1545	1
20	3426	1550	1
20	3492	1580	1
20	3554	1610	1
20	3629	1645	1
20	3640	1650	1
20	3664	1660	1
20	3901	1770	1
20	4128	1875	1
20	4185	1900	1
20	4275	1940	1
20	4286	1945	1
20	5376	2445	1
20	5398	2455	1
20	5433	2470	1
20	5501	2500	1
20	5512	2505	1
20	5626	2555	1
20	5641	2560	1
20	5652	2565	1
20	5689	2580	1
20	5751	2610	1
20	5806	2635	1
20	6004	2725	1
20	6108	2775	1
20	6174	2805	1
20	6185	2810	1
20	6196	2815	1
20	6211	2820	1
20	6262	2845	1
20	6529	2970	1
20	6540	2975	1
20	6650	3025	1
20	6727	3060	1
20	6780	3085	1
20	6987	3180	1
20	7073	3220	1
20	7214	3285	1
20	7225	3290	1
20	7236	3295	1
20	7269	3310	1
20	7322	3335	1
20	7403	3370	1
20	7414	3375	1
20	7429	3380	1
20	7627	3470	1
20	7638	3475	1
20	7664	3485	1
20	7730	3515	1
20	7802	3545	1

