version 2
run FourthVerification-7-20201214-15:14:41-220643
attr configname FourthVerification
attr datetime 20201214-15:14:41
attr experiment FourthVerification
attr inifile omnetpp.ini
attr iterationvars "$0=3, $1=0.8"
attr iterationvarsf 3,0.8-
attr measurement "$0=3, $1=0.8"
attr network slottedNetwork
attr processid 220643
attr repetition 0
attr replication #0
attr resultdir results
attr runnumber 7
attr seedset 7
param **.numTransmitters 3
param **.numChannels 1
param **.bufferSize 5
param **.sendProbability 0.8
param **.expMean 4s
param **.timeSlotSize 5s
param **.thresh 20s
param **.deterministicInterarrivalTime true
param **.numTransmitters 1
param **.numChannels 1
param **.bufferSize 5
param **.sendProbability 1
param **.expMean 5s
param **.timeSlotSize 5s
param **.thresh 20s
param **.deterministicInterarrivalTime false

vector 0 slottedNetwork.transmitters[0] numPacketCreated:vector ETV
attr source numPacketCreatedSignal
vector 1 slottedNetwork.transmitters[1] numPacketCreated:vector ETV
attr source numPacketCreatedSignal
vector 2 slottedNetwork.transmitters[2] numPacketCreated:vector ETV
attr source numPacketCreatedSignal
vector 3 slottedNetwork.ch throughput:vector ETV
attr source throughputSignal
vector 4 slottedNetwork.receivers[1] numPacketReceived:vector ETV
attr source numPacketReceivedSignal
vector 5 slottedNetwork.receivers[1] responseTime:vector ETV
attr source responseTimeSignal
vector 6 slottedNetwork.receivers[1] threshold:vector ETV
attr source thresholdSignal
vector 7 slottedNetwork.transmitters[0] numPacketDiscarded:vector ETV
attr source numPacketDiscardedSignal
vector 8 slottedNetwork.transmitters[2] numPacketDiscarded:vector ETV
attr source numPacketDiscardedSignal
vector 9 slottedNetwork.transmitters[1] numPacketDiscarded:vector ETV
attr source numPacketDiscardedSignal
vector 10 slottedNetwork.receivers[2] numPacketReceived:vector ETV
attr source numPacketReceivedSignal
vector 11 slottedNetwork.receivers[2] responseTime:vector ETV
attr source responseTimeSignal
vector 12 slottedNetwork.receivers[2] threshold:vector ETV
attr source thresholdSignal
vector 13 slottedNetwork.receivers[0] numPacketReceived:vector ETV
attr source numPacketReceivedSignal
vector 14 slottedNetwork.receivers[0] responseTime:vector ETV
attr source responseTimeSignal
vector 15 slottedNetwork.receivers[0] threshold:vector ETV
attr source thresholdSignal
0	1	4	1
0	10	8	1
0	18	12	1
0	26	16	1
0	30	20	1
0	37	24	1
0	46	28	1
0	56	32	1
0	63	36	1
0	67	40	1
0	74	44	1
0	83	48	1
0	91	52	1
0	100	56	1
0	104	60	1
0	110	64	1
0	117	68	1
0	124	72	1
0	132	76	1
0	136	80	1
0	144	84	1
0	154	88	1
0	162	92	1
0	171	96	1
0	175	100	1
0	184	104	1
0	191	108	1
0	198	112	1
0	205	116	1
0	209	120	1
0	216	124	1
0	226	128	1
0	233	132	1
0	240	136	1
0	244	140	1
0	250	144	1
0	259	148	1
0	266	152	1
0	273	156	1
0	277	160	1
0	284	164	1
0	292	168	1
0	300	172	1
0	308	176	1
0	312	180	1
0	319	184	1
0	328	188	1
0	337	192	1
0	347	196	1
0	351	200	1
0	357	204	1
0	364	208	1
0	371	212	1
0	378	216	1
0	382	220	1
0	389	224	1
0	398	228	1
0	408	232	1
0	416	236	1
0	420	240	1
0	428	244	1
0	437	248	1
0	445	252	1
0	453	256	1
0	457	260	1
0	466	264	1
0	473	268	1
0	480	272	1
0	490	276	1
0	494	280	1
0	500	284	1
0	507	288	1
0	514	292	1
0	521	296	1
0	525	300	1
0	531	304	1
0	538	308	1
0	545	312	1
0	552	316	1
0	556	320	1
0	563	324	1
0	572	328	1
0	582	332	1
0	589	336	1
0	593	340	1
0	599	344	1
0	606	348	1
0	614	352	1
0	623	356	1
0	627	360	1
0	636	364	1
0	644	368	1
0	653	372	1
0	662	376	1
0	666	380	1
0	674	384	1
0	683	388	1
0	692	392	1
0	701	396	1
0	705	400	1
0	715	404	1
0	722	408	1
0	729	412	1
0	737	416	1
0	741	420	1
0	749	424	1
0	758	428	1
0	767	432	1
0	776	436	1
0	780	440	1
0	787	444	1
0	795	448	1
0	803	452	1
0	811	456	1
0	815	460	1
0	823	464	1
0	833	468	1
0	840	472	1
0	847	476	1
0	851	480	1
0	857	484	1
0	864	488	1
0	873	492	1
0	880	496	1
0	884	500	1
0	890	504	1
0	897	508	1
0	904	512	1
0	911	516	1
0	915	520	1
0	922	524	1
0	930	528	1
0	938	532	1
0	948	536	1
0	952	540	1
0	958	544	1
0	965	548	1
0	973	552	1
0	983	556	1
0	987	560	1
0	993	564	1
0	1000	568	1
0	1007	572	1
0	1015	576	1
0	1019	580	1
0	1028	584	1
0	1035	588	1
0	1042	592	1
0	1049	596	1
0	1053	600	1
0	1059	604	1
0	1066	608	1
0	1074	612	1
0	1083	616	1
0	1087	620	1
0	1096	624	1
0	1103	628	1
0	1110	632	1
0	1117	636	1
0	1121	640	1
0	1127	644	1
0	1135	648	1
0	1145	652	1
0	1152	656	1
0	1156	660	1
0	1162	664	1
0	1169	668	1
0	1176	672	1
0	1184	676	1
0	1188	680	1
0	1196	684	1
0	1205	688	1
0	1215	692	1
0	1222	696	1
0	1226	700	1
0	1232	704	1
0	1239	708	1
0	1248	712	1
0	1255	716	1
0	1259	720	1
0	1265	724	1
0	1273	728	1
0	1282	732	1
0	1291	736	1
0	1295	740	1
0	1303	744	1
0	1312	748	1
0	1320	752	1
0	1328	756	1
0	1332	760	1
0	1341	764	1
0	1348	768	1
0	1355	772	1
0	1363	776	1
0	1367	780	1
0	1376	784	1
0	1383	788	1
0	1390	792	1
0	1398	796	1
0	1402	800	1
0	1410	804	1
0	1420	808	1
0	1427	812	1
0	1434	816	1
0	1438	820	1
0	1444	824	1
0	1451	828	1
0	1458	832	1
0	1467	836	1
0	1471	840	1
0	1477	844	1
0	1484	848	1
0	1491	852	1
0	1498	856	1
0	1502	860	1
0	1508	864	1
0	1515	868	1
0	1524	872	1
0	1531	876	1
0	1535	880	1
0	1541	884	1
0	1548	888	1
0	1556	892	1
0	1565	896	1
0	1569	900	1
0	1576	904	1
0	1583	908	1
0	1591	912	1
0	1600	916	1
0	1604	920	1
0	1611	924	1
0	1619	928	1
0	1628	932	1
0	1637	936	1
0	1641	940	1
0	1649	944	1
0	1658	948	1
0	1667	952	1
0	1676	956	1
0	1680	960	1
0	1688	964	1
0	1697	968	1
0	1706	972	1
0	1714	976	1
0	1718	980	1
0	1725	984	1
0	1735	988	1
0	1742	992	1
0	1749	996	1
0	1753	1000	1
0	1760	1004	1
0	1769	1008	1
0	1778	1012	1
0	1787	1016	1
0	1791	1020	1
0	1799	1024	1
0	1808	1028	1
0	1817	1032	1
0	1826	1036	1
0	1830	1040	1
0	1837	1044	1
0	1845	1048	1
0	1854	1052	1
0	1863	1056	1
0	1867	1060	1
0	1875	1064	1
0	1883	1068	1
0	1891	1072	1
0	1900	1076	1
0	1904	1080	1
0	1912	1084	1
0	1921	1088	1
0	1929	1092	1
0	1937	1096	1
0	1941	1100	1
0	1949	1104	1
0	1957	1108	1
0	1965	1112	1
0	1974	1116	1
0	1978	1120	1
0	1986	1124	1
0	1995	1128	1
0	2004	1132	1
0	2013	1136	1
0	2017	1140	1
0	2025	1144	1
0	2034	1148	1
0	2043	1152	1
0	2052	1156	1
0	2056	1160	1
0	2064	1164	1
0	2072	1168	1
0	2079	1172	1
0	2087	1176	1
0	2091	1180	1
0	2100	1184	1
0	2107	1188	1
0	2114	1192	1
0	2121	1196	1
0	2125	1200	1
0	2132	1204	1
0	2141	1208	1
0	2150	1212	1
0	2159	1216	1
0	2163	1220	1
0	2171	1224	1
0	2179	1228	1
0	2187	1232	1
0	2196	1236	1
0	2200	1240	1
0	2208	1244	1
0	2217	1248	1
0	2225	1252	1
0	2233	1256	1
0	2237	1260	1
0	2245	1264	1
0	2254	1268	1
0	2263	1272	1
0	2272	1276	1
0	2276	1280	1
0	2284	1284	1
0	2293	1288	1
0	2301	1292	1
0	2309	1296	1
0	2313	1300	1
0	2321	1304	1
0	2330	1308	1
0	2339	1312	1
0	2348	1316	1
0	2352	1320	1
0	2360	1324	1
0	2369	1328	1
0	2377	1332	1
0	2384	1336	1
0	2388	1340	1
0	2395	1344	1
0	2404	1348	1
0	2413	1352	1
0	2422	1356	1
0	2426	1360	1
0	2433	1364	1
0	2442	1368	1
0	2449	1372	1
0	2456	1376	1
0	2460	1380	1
0	2467	1384	1
0	2475	1388	1
0	2483	1392	1
0	2492	1396	1
0	2496	1400	1
0	2504	1404	1
0	2513	1408	1
0	2521	1412	1
0	2529	1416	1
0	2533	1420	1
0	2541	1424	1
0	2550	1428	1
0	2559	1432	1
0	2569	1436	1
0	2573	1440	1
0	2579	1444	1
0	2586	1448	1
0	2593	1452	1
0	2600	1456	1
0	2604	1460	1
0	2610	1464	1
0	2618	1468	1
0	2626	1472	1
0	2635	1476	1
0	2639	1480	1
0	2645	1484	1
0	2652	1488	1
0	2659	1492	1
0	2667	1496	1
0	2671	1500	1
0	2679	1504	1
0	2688	1508	1
0	2696	1512	1
0	2704	1516	1
0	2708	1520	1
0	2716	1524	1
0	2726	1528	1
0	2733	1532	1
0	2740	1536	1
0	2744	1540	1
0	2750	1544	1
0	2757	1548	1
0	2765	1552	1
0	2774	1556	1
0	2778	1560	1
0	2786	1564	1
0	2796	1568	1
0	2803	1572	1
0	2810	1576	1
0	2814	1580	1
0	2821	1584	1
0	2830	1588	1
0	2839	1592	1
0	2848	1596	1
0	2852	1600	1
0	2861	1604	1
0	2868	1608	1
0	2875	1612	1
0	2882	1616	1
0	2886	1620	1
0	2893	1624	1
0	2903	1628	1
0	2911	1632	1
0	2920	1636	1
0	2924	1640	1
0	2932	1644	1
0	2941	1648	1
0	2950	1652	1
0	2960	1656	1
0	2964	1660	1
0	2970	1664	1
0	2977	1668	1
0	2984	1672	1
0	2991	1676	1
0	2995	1680	1
0	3002	1684	1
0	3012	1688	1
0	3019	1692	1
0	3026	1696	1
0	3030	1700	1
0	3036	1704	1
0	3044	1708	1
0	3053	1712	1
0	3062	1716	1
0	3066	1720	1
0	3073	1724	1
0	3080	1728	1
0	3088	1732	1
0	3098	1736	1
0	3102	1740	1
0	3108	1744	1
0	3115	1748	1
0	3123	1752	1
0	3132	1756	1
0	3136	1760	1
0	3144	1764	1
0	3152	1768	1
0	3160	1772	1
0	3169	1776	1
0	3173	1780	1
0	3180	1784	1
0	3188	1788	1
0	3197	1792	1
0	3206	1796	1
0	3210	1800	1
0	3218	1804	1
0	3227	1808	1
0	3236	1812	1
0	3245	1816	1
0	3249	1820	1
0	3257	1824	1
0	3265	1828	1
0	3274	1832	1
0	3281	1836	1
0	3285	1840	1
0	3291	1844	1
0	3298	1848	1
0	3306	1852	1
0	3315	1856	1
0	3319	1860	1
0	3328	1864	1
0	3335	1868	1
0	3342	1872	1
0	3350	1876	1
0	3354	1880	1
0	3361	1884	1
0	3369	1888	1
0	3379	1892	1
0	3386	1896	1
0	3390	1900	1
0	3396	1904	1
0	3403	1908	1
0	3410	1912	1
0	3419	1916	1
0	3423	1920	1
0	3429	1924	1
0	3436	1928	1
0	3443	1932	1
0	3451	1936	1
0	3455	1940	1
0	3463	1944	1
0	3472	1948	1
0	3481	1952	1
0	3490	1956	1
0	3494	1960	1
0	3502	1964	1
0	3512	1968	1
0	3519	1972	1
0	3526	1976	1
0	3530	1980	1
0	3537	1984	1
0	3546	1988	1
0	3556	1992	1
0	3563	1996	1
0	3567	2000	1
0	3573	2004	1
0	3580	2008	1
0	3588	2012	1
0	3598	2016	1
0	3602	2020	1
0	3608	2024	1
0	3615	2028	1
0	3622	2032	1
0	3630	2036	1
0	3634	2040	1
0	3642	2044	1
0	3650	2048	1
0	3658	2052	1
0	3666	2056	1
0	3670	2060	1
0	3677	2064	1
0	3686	2068	1
0	3695	2072	1
0	3704	2076	1
0	3708	2080	1
0	3715	2084	1
0	3723	2088	1
0	3732	2092	1
0	3741	2096	1
0	3745	2100	1
0	3754	2104	1
0	3761	2108	1
0	3768	2112	1
0	3776	2116	1
0	3780	2120	1
0	3788	2124	1
0	3796	2128	1
0	3804	2132	1
0	3813	2136	1
0	3817	2140	1
0	3825	2144	1
0	3834	2148	1
0	3843	2152	1
0	3852	2156	1
0	3856	2160	1
0	3863	2164	1
0	3871	2168	1
0	3880	2172	1
0	3889	2176	1
0	3893	2180	1
0	3901	2184	1
0	3910	2188	1
0	3918	2192	1
0	3926	2196	1
0	3930	2200	1
0	3938	2204	1
0	3947	2208	1
0	3955	2212	1
0	3963	2216	1
0	3967	2220	1
0	3975	2224	1
0	3984	2228	1
0	3994	2232	1
0	4001	2236	1
0	4005	2240	1
0	4011	2244	1
0	4019	2248	1
0	4028	2252	1
0	4037	2256	1
0	4041	2260	1
0	4049	2264	1
0	4058	2268	1
0	4067	2272	1
0	4076	2276	1
0	4080	2280	1
0	4088	2284	1
0	4097	2288	1
0	4106	2292	1
0	4114	2296	1
0	4118	2300	1
0	4125	2304	1
0	4134	2308	1
0	4143	2312	1
0	4152	2316	1
0	4156	2320	1
0	4164	2324	1
0	4172	2328	1
0	4180	2332	1
0	4189	2336	1
0	4193	2340	1
0	4201	2344	1
0	4209	2348	1
0	4216	2352	1
0	4224	2356	1
0	4228	2360	1
0	4236	2364	1
0	4245	2368	1
0	4254	2372	1
0	4263	2376	1
0	4267	2380	1
0	4274	2384	1
0	4282	2388	1
0	4291	2392	1
0	4300	2396	1
0	4304	2400	1
0	4312	2404	1
0	4321	2408	1
0	4330	2412	1
0	4339	2416	1
0	4343	2420	1
0	4351	2424	1
0	4359	2428	1
0	4366	2432	1
0	4373	2436	1
0	4377	2440	1
0	4384	2444	1
0	4393	2448	1
0	4402	2452	1
0	4411	2456	1
0	4415	2460	1
0	4424	2464	1
0	4431	2468	1
0	4438	2472	1
0	4445	2476	1
0	4449	2480	1
0	4455	2484	1
0	4462	2488	1
0	4469	2492	1
0	4477	2496	1
0	4481	2500	1
0	4489	2504	1
0	4497	2508	1
0	4505	2512	1
0	4514	2516	1
0	4518	2520	1
0	4526	2524	1
0	4535	2528	1
0	4544	2532	1
0	4552	2536	1
0	4556	2540	1
0	4563	2544	1
0	4571	2548	1
0	4579	2552	1
0	4587	2556	1
0	4591	2560	1
0	4598	2564	1
0	4606	2568	1
0	4614	2572	1
0	4623	2576	1
0	4627	2580	1
0	4635	2584	1
0	4643	2588	1
0	4651	2592	1
0	4660	2596	1
0	4664	2600	1
0	4672	2604	1
0	4681	2608	1
0	4690	2612	1
0	4699	2616	1
0	4703	2620	1
0	4711	2624	1
0	4719	2628	1
0	4727	2632	1
0	4736	2636	1
0	4740	2640	1
0	4748	2644	1
0	4757	2648	1
0	4766	2652	1
0	4775	2656	1
0	4779	2660	1
0	4787	2664	1
0	4797	2668	1
0	4804	2672	1
0	4811	2676	1
0	4815	2680	1
0	4821	2684	1
0	4828	2688	1
0	4835	2692	1
0	4843	2696	1
0	4847	2700	1
0	4854	2704	1
0	4862	2708	1
0	4871	2712	1
0	4879	2716	1
0	4883	2720	1
0	4890	2724	1
0	4898	2728	1
0	4906	2732	1
0	4915	2736	1
0	4919	2740	1
0	4927	2744	1
0	4936	2748	1
0	4945	2752	1
0	4954	2756	1
0	4958	2760	1
0	4965	2764	1
0	4973	2768	1
0	4982	2772	1
0	4991	2776	1
0	4995	2780	1
0	5003	2784	1
0	5012	2788	1
0	5021	2792	1
0	5029	2796	1
0	5033	2800	1
0	5040	2804	1
0	5049	2808	1
0	5057	2812	1
0	5064	2816	1
0	5068	2820	1
0	5075	2824	1
0	5083	2828	1
0	5091	2832	1
0	5099	2836	1
0	5103	2840	1
0	5110	2844	1
0	5119	2848	1
0	5128	2852	1
0	5137	2856	1
0	5141	2860	1
0	5150	2864	1
0	5157	2868	1
0	5164	2872	1
0	5172	2876	1
0	5176	2880	1
0	5183	2884	1
0	5191	2888	1
0	5200	2892	1
0	5209	2896	1
0	5213	2900	1
0	5221	2904	1
0	5230	2908	1
0	5238	2912	1
0	5245	2916	1
0	5249	2920	1
0	5256	2924	1
0	5265	2928	1
0	5274	2932	1
0	5283	2936	1
0	5287	2940	1
0	5294	2944	1
0	5302	2948	1
0	5310	2952	1
0	5318	2956	1
0	5322	2960	1
0	5330	2964	1
0	5339	2968	1
0	5348	2972	1
0	5357	2976	1
0	5361	2980	1
0	5368	2984	1
0	5376	2988	1
0	5385	2992	1
0	5394	2996	1
0	5398	3000	1
0	5405	3004	1
0	5413	3008	1
0	5422	3012	1
0	5430	3016	1
0	5434	3020	1
0	5440	3024	1
0	5447	3028	1
0	5455	3032	1
0	5464	3036	1
0	5468	3040	1
0	5476	3044	1
0	5485	3048	1
0	5494	3052	1
0	5503	3056	1
0	5507	3060	1
0	5514	3064	1
0	5522	3068	1
0	5531	3072	1
0	5540	3076	1
0	5544	3080	1
0	5552	3084	1
0	5562	3088	1
0	5569	3092	1
0	5576	3096	1
0	5580	3100	1
0	5588	3104	1
0	5595	3108	1
0	5602	3112	1
0	5609	3116	1
0	5613	3120	1
0	5619	3124	1
0	5627	3128	1
0	5637	3132	1
0	5644	3136	1
0	5648	3140	1
0	5654	3144	1
0	5661	3148	1
0	5669	3152	1
0	5678	3156	1
0	5682	3160	1
0	5690	3164	1
0	5699	3168	1
0	5708	3172	1
0	5718	3176	1
0	5722	3180	1
0	5728	3184	1
0	5735	3188	1
0	5742	3192	1
0	5749	3196	1
0	5753	3200	1
0	5759	3204	1
0	5767	3208	1
0	5776	3212	1
0	5784	3216	1
0	5788	3220	1
0	5795	3224	1
0	5804	3228	1
0	5813	3232	1
0	5822	3236	1
0	5826	3240	1
0	5834	3244	1
0	5843	3248	1
0	5852	3252	1
0	5861	3256	1
0	5865	3260	1
0	5873	3264	1
0	5882	3268	1
0	5891	3272	1
0	5899	3276	1
0	5903	3280	1
0	5910	3284	1
0	5918	3288	1
0	5926	3292	1
0	5935	3296	1
0	5939	3300	1
0	5947	3304	1
0	5955	3308	1
0	5963	3312	1
0	5972	3316	1
0	5976	3320	1
0	5985	3324	1
0	5992	3328	1
0	5999	3332	1
0	6006	3336	1
0	6010	3340	1
0	6017	3344	1
0	6026	3348	1
0	6035	3352	1
0	6043	3356	1
0	6047	3360	1
0	6053	3364	1
0	6061	3368	1
0	6070	3372	1
0	6079	3376	1
0	6083	3380	1
0	6090	3384	1
0	6097	3388	1
0	6105	3392	1
0	6114	3396	1
0	6118	3400	1
0	6126	3404	1
0	6135	3408	1
0	6143	3412	1
0	6151	3416	1
0	6155	3420	1
0	6163	3424	1
0	6173	3428	1
0	6180	3432	1
0	6187	3436	1
0	6191	3440	1
0	6197	3444	1
0	6205	3448	1
0	6214	3452	1
0	6222	3456	1
0	6226	3460	1
0	6233	3464	1
0	6242	3468	1
0	6251	3472	1
0	6259	3476	1
0	6263	3480	1
0	6270	3484	1
0	6279	3488	1
0	6288	3492	1
0	6297	3496	1
0	6301	3500	1
0	6309	3504	1
0	6318	3508	1
0	6326	3512	1
0	6334	3516	1
0	6338	3520	1
0	6346	3524	1
0	6354	3528	1
0	6362	3532	1
0	6371	3536	1
0	6375	3540	1
0	6383	3544	1
0	6392	3548	1
0	6400	3552	1
0	6408	3556	1
0	6412	3560	1
0	6420	3564	1
0	6429	3568	1
0	6438	3572	1
0	6447	3576	1
0	6451	3580	1
0	6459	3584	1
0	6468	3588	1
0	6476	3592	1
0	6484	3596	1
0	6488	3600	1
1	2	4	1
1	11	8	1
1	19	12	1
1	27	16	1
1	31	20	1
1	38	24	1
1	47	28	1
1	57	32	1
1	64	36	1
1	68	40	1
1	75	44	1
1	84	48	1
1	92	52	1
1	101	56	1
1	105	60	1
1	111	64	1
1	118	68	1
1	125	72	1
1	133	76	1
1	137	80	1
1	145	84	1
1	155	88	1
1	163	92	1
1	172	96	1
1	176	100	1
1	185	104	1
1	192	108	1
1	199	112	1
1	206	116	1
1	210	120	1
1	217	124	1
1	227	128	1
1	234	132	1
1	241	136	1
1	245	140	1
1	251	144	1
1	260	148	1
1	267	152	1
1	274	156	1
1	278	160	1
1	285	164	1
1	293	168	1
1	301	172	1
1	309	176	1
1	313	180	1
1	320	184	1
1	329	188	1
1	338	192	1
1	348	196	1
1	352	200	1
1	358	204	1
1	365	208	1
1	372	212	1
1	379	216	1
1	383	220	1
1	390	224	1
1	399	228	1
1	409	232	1
1	417	236	1
1	421	240	1
1	429	244	1
1	438	248	1
1	446	252	1
1	454	256	1
1	458	260	1
1	467	264	1
1	474	268	1
1	481	272	1
1	491	276	1
1	495	280	1
1	501	284	1
1	508	288	1
1	515	292	1
1	522	296	1
1	526	300	1
1	532	304	1
1	539	308	1
1	546	312	1
1	553	316	1
1	557	320	1
1	564	324	1
1	573	328	1
1	583	332	1
1	590	336	1
1	594	340	1
1	600	344	1
1	607	348	1
1	615	352	1
1	624	356	1
1	628	360	1
1	637	364	1
1	645	368	1
1	654	372	1
1	663	376	1
1	667	380	1
1	675	384	1
1	684	388	1
1	693	392	1
1	702	396	1
1	706	400	1
1	716	404	1
1	723	408	1
1	730	412	1
1	738	416	1
1	742	420	1
1	750	424	1
1	759	428	1
1	768	432	1
1	777	436	1
1	781	440	1
1	788	444	1
1	796	448	1
1	804	452	1
1	812	456	1
1	816	460	1
1	824	464	1
1	834	468	1
1	841	472	1
1	848	476	1
1	852	480	1
1	858	484	1
1	865	488	1
1	874	492	1
1	881	496	1
1	885	500	1
1	891	504	1
1	898	508	1
1	905	512	1
1	912	516	1
1	916	520	1
1	923	524	1
1	931	528	1
1	939	532	1
1	949	536	1
1	953	540	1
1	959	544	1
1	966	548	1
1	974	552	1
1	984	556	1
1	988	560	1
1	994	564	1
1	1001	568	1
1	1008	572	1
1	1016	576	1
1	1020	580	1
1	1029	584	1
1	1036	588	1
1	1043	592	1
1	1050	596	1
1	1054	600	1
1	1060	604	1
1	1067	608	1
1	1075	612	1
1	1084	616	1
1	1088	620	1
1	1097	624	1
1	1104	628	1
1	1111	632	1
1	1118	636	1
1	1122	640	1
1	1128	644	1
1	1136	648	1
1	1146	652	1
1	1153	656	1
1	1157	660	1
1	1163	664	1
1	1170	668	1
1	1177	672	1
1	1185	676	1
1	1189	680	1
1	1197	684	1
1	1206	688	1
1	1216	692	1
1	1223	696	1
1	1227	700	1
1	1233	704	1
1	1240	708	1
1	1249	712	1
1	1256	716	1
1	1260	720	1
1	1266	724	1
1	1274	728	1
1	1283	732	1
1	1292	736	1
1	1296	740	1
1	1304	744	1
1	1313	748	1
1	1321	752	1
1	1329	756	1
1	1333	760	1
1	1342	764	1
1	1349	768	1
1	1356	772	1
1	1364	776	1
1	1368	780	1
1	1377	784	1
1	1384	788	1
1	1391	792	1
1	1399	796	1
1	1403	800	1
1	1411	804	1
1	1421	808	1
1	1428	812	1
1	1435	816	1
1	1439	820	1
1	1445	824	1
1	1452	828	1
1	1459	832	1
1	1468	836	1
1	1472	840	1
1	1478	844	1
1	1485	848	1
1	1492	852	1
1	1499	856	1
1	1503	860	1
1	1509	864	1
1	1516	868	1
1	1525	872	1
1	1532	876	1
1	1536	880	1
1	1542	884	1
1	1549	888	1
1	1557	892	1
1	1566	896	1
1	1570	900	1
1	1577	904	1
1	1584	908	1
1	1592	912	1
1	1601	916	1
1	1605	920	1
1	1612	924	1
1	1620	928	1
1	1629	932	1
1	1638	936	1
1	1642	940	1
1	1650	944	1
1	1659	948	1
1	1668	952	1
1	1677	956	1
1	1681	960	1
1	1689	964	1
1	1698	968	1
1	1707	972	1
1	1715	976	1
1	1719	980	1
1	1726	984	1
1	1736	988	1
1	1743	992	1
1	1750	996	1
1	1754	1000	1
1	1761	1004	1
1	1770	1008	1
1	1779	1012	1
1	1788	1016	1
1	1792	1020	1
1	1800	1024	1
1	1809	1028	1
1	1818	1032	1
1	1827	1036	1
1	1831	1040	1
1	1838	1044	1
1	1846	1048	1
1	1855	1052	1
1	1864	1056	1
1	1868	1060	1
1	1876	1064	1
1	1884	1068	1
1	1892	1072	1
1	1901	1076	1
1	1905	1080	1
1	1913	1084	1
1	1922	1088	1
1	1930	1092	1
1	1938	1096	1
1	1942	1100	1
1	1950	1104	1
1	1958	1108	1
1	1966	1112	1
1	1975	1116	1
1	1979	1120	1
1	1987	1124	1
1	1996	1128	1
1	2005	1132	1
1	2014	1136	1
1	2018	1140	1
1	2026	1144	1
1	2035	1148	1
1	2044	1152	1
1	2053	1156	1
1	2057	1160	1
1	2065	1164	1
1	2073	1168	1
1	2080	1172	1
1	2088	1176	1
1	2092	1180	1
1	2101	1184	1
1	2108	1188	1
1	2115	1192	1
1	2122	1196	1
1	2126	1200	1
1	2133	1204	1
1	2142	1208	1
1	2151	1212	1
1	2160	1216	1
1	2164	1220	1
1	2172	1224	1
1	2180	1228	1
1	2188	1232	1
1	2197	1236	1
1	2201	1240	1
1	2209	1244	1
1	2218	1248	1
1	2226	1252	1
1	2234	1256	1
1	2238	1260	1
1	2246	1264	1
1	2255	1268	1
1	2264	1272	1
1	2273	1276	1
1	2277	1280	1
1	2285	1284	1
1	2294	1288	1
1	2302	1292	1
1	2310	1296	1
1	2314	1300	1
1	2322	1304	1
1	2331	1308	1
1	2340	1312	1
1	2349	1316	1
1	2353	1320	1
1	2361	1324	1
1	2370	1328	1
1	2378	1332	1
1	2385	1336	1
1	2389	1340	1
1	2396	1344	1
1	2405	1348	1
1	2414	1352	1
1	2423	1356	1
1	2427	1360	1
1	2434	1364	1
1	2443	1368	1
1	2450	1372	1
1	2457	1376	1
1	2461	1380	1
1	2468	1384	1
1	2476	1388	1
1	2484	1392	1
1	2493	1396	1
1	2497	1400	1
1	2505	1404	1
1	2514	1408	1
1	2522	1412	1
1	2530	1416	1
1	2534	1420	1
1	2542	1424	1
1	2551	1428	1
1	2560	1432	1
1	2570	1436	1
1	2574	1440	1
1	2580	1444	1
1	2587	1448	1
1	2594	1452	1
1	2601	1456	1
1	2605	1460	1
1	2611	1464	1
1	2619	1468	1
1	2627	1472	1
1	2636	1476	1
1	2640	1480	1
1	2646	1484	1
1	2653	1488	1
1	2660	1492	1
1	2668	1496	1
1	2672	1500	1
1	2680	1504	1
1	2689	1508	1
1	2697	1512	1
1	2705	1516	1
1	2709	1520	1
1	2717	1524	1
1	2727	1528	1
1	2734	1532	1
1	2741	1536	1
1	2745	1540	1
1	2751	1544	1
1	2758	1548	1
1	2766	1552	1
1	2775	1556	1
1	2779	1560	1
1	2787	1564	1
1	2797	1568	1
1	2804	1572	1
1	2811	1576	1
1	2815	1580	1
1	2822	1584	1
1	2831	1588	1
1	2840	1592	1
1	2849	1596	1
1	2853	1600	1
1	2862	1604	1
1	2869	1608	1
1	2876	1612	1
1	2883	1616	1
1	2887	1620	1
1	2894	1624	1
1	2904	1628	1
1	2912	1632	1
1	2921	1636	1
1	2925	1640	1
1	2933	1644	1
1	2942	1648	1
1	2951	1652	1
1	2961	1656	1
1	2965	1660	1
1	2971	1664	1
1	2978	1668	1
1	2985	1672	1
1	2992	1676	1
1	2996	1680	1
1	3003	1684	1
1	3013	1688	1
1	3020	1692	1
1	3027	1696	1
1	3031	1700	1
1	3037	1704	1
1	3045	1708	1
1	3054	1712	1
1	3063	1716	1
1	3067	1720	1
1	3074	1724	1
1	3081	1728	1
1	3089	1732	1
1	3099	1736	1
1	3103	1740	1
1	3109	1744	1
1	3116	1748	1
1	3124	1752	1
1	3133	1756	1
1	3137	1760	1
1	3145	1764	1
1	3153	1768	1
1	3161	1772	1
1	3170	1776	1
1	3174	1780	1
1	3181	1784	1
1	3189	1788	1
1	3198	1792	1
1	3207	1796	1
1	3211	1800	1
1	3219	1804	1
1	3228	1808	1
1	3237	1812	1
1	3246	1816	1
1	3250	1820	1
1	3258	1824	1
1	3266	1828	1
1	3275	1832	1
1	3282	1836	1
1	3286	1840	1
1	3292	1844	1
1	3299	1848	1
1	3307	1852	1
1	3316	1856	1
1	3320	1860	1
1	3329	1864	1
1	3336	1868	1
1	3343	1872	1
1	3351	1876	1
1	3355	1880	1
1	3362	1884	1
1	3370	1888	1
1	3380	1892	1
1	3387	1896	1
1	3391	1900	1
1	3397	1904	1
1	3404	1908	1
1	3411	1912	1
1	3420	1916	1
1	3424	1920	1
1	3430	1924	1
1	3437	1928	1
1	3444	1932	1
1	3452	1936	1
1	3456	1940	1
1	3464	1944	1
1	3473	1948	1
1	3482	1952	1
1	3491	1956	1
1	3495	1960	1
1	3503	1964	1
1	3513	1968	1
1	3520	1972	1
1	3527	1976	1
1	3531	1980	1
1	3538	1984	1
1	3547	1988	1
1	3557	1992	1
1	3564	1996	1
1	3568	2000	1
1	3574	2004	1
1	3581	2008	1
1	3589	2012	1
1	3599	2016	1
1	3603	2020	1
1	3609	2024	1
1	3616	2028	1
1	3623	2032	1
1	3631	2036	1
1	3635	2040	1
1	3643	2044	1
1	3651	2048	1
1	3659	2052	1
1	3667	2056	1
1	3671	2060	1
1	3678	2064	1
1	3687	2068	1
1	3696	2072	1
1	3705	2076	1
1	3709	2080	1
1	3716	2084	1
1	3724	2088	1
1	3733	2092	1
1	3742	2096	1
1	3746	2100	1
1	3755	2104	1
1	3762	2108	1
1	3769	2112	1
1	3777	2116	1
1	3781	2120	1
1	3789	2124	1
1	3797	2128	1
1	3805	2132	1
1	3814	2136	1
1	3818	2140	1
1	3826	2144	1
1	3835	2148	1
1	3844	2152	1
1	3853	2156	1
1	3857	2160	1
1	3864	2164	1
1	3872	2168	1
1	3881	2172	1
1	3890	2176	1
1	3894	2180	1
1	3902	2184	1
1	3911	2188	1
1	3919	2192	1
1	3927	2196	1
1	3931	2200	1
1	3939	2204	1
1	3948	2208	1
1	3956	2212	1
1	3964	2216	1
1	3968	2220	1
1	3976	2224	1
1	3985	2228	1
1	3995	2232	1
1	4002	2236	1
1	4006	2240	1
1	4012	2244	1
1	4020	2248	1
1	4029	2252	1
1	4038	2256	1
1	4042	2260	1
1	4050	2264	1
1	4059	2268	1
1	4068	2272	1
1	4077	2276	1
1	4081	2280	1
1	4089	2284	1
1	4098	2288	1
1	4107	2292	1
1	4115	2296	1
1	4119	2300	1
1	4126	2304	1
1	4135	2308	1
1	4144	2312	1
1	4153	2316	1
1	4157	2320	1
1	4165	2324	1
1	4173	2328	1
1	4181	2332	1
1	4190	2336	1
1	4194	2340	1
1	4202	2344	1
1	4210	2348	1
1	4217	2352	1
1	4225	2356	1
1	4229	2360	1
1	4237	2364	1
1	4246	2368	1
1	4255	2372	1
1	4264	2376	1
1	4268	2380	1
1	4275	2384	1
1	4283	2388	1
1	4292	2392	1
1	4301	2396	1
1	4305	2400	1
1	4313	2404	1
1	4322	2408	1
1	4331	2412	1
1	4340	2416	1
1	4344	2420	1
1	4352	2424	1
1	4360	2428	1
1	4367	2432	1
1	4374	2436	1
1	4378	2440	1
1	4385	2444	1
1	4394	2448	1
1	4403	2452	1
1	4412	2456	1
1	4416	2460	1
1	4425	2464	1
1	4432	2468	1
1	4439	2472	1
1	4446	2476	1
1	4450	2480	1
1	4456	2484	1
1	4463	2488	1
1	4470	2492	1
1	4478	2496	1
1	4482	2500	1
1	4490	2504	1
1	4498	2508	1
1	4506	2512	1
1	4515	2516	1
1	4519	2520	1
1	4527	2524	1
1	4536	2528	1
1	4545	2532	1
1	4553	2536	1
1	4557	2540	1
1	4564	2544	1
1	4572	2548	1
1	4580	2552	1
1	4588	2556	1
1	4592	2560	1
1	4599	2564	1
1	4607	2568	1
1	4615	2572	1
1	4624	2576	1
1	4628	2580	1
1	4636	2584	1
1	4644	2588	1
1	4652	2592	1
1	4661	2596	1
1	4665	2600	1
1	4673	2604	1
1	4682	2608	1
1	4691	2612	1
1	4700	2616	1
1	4704	2620	1
1	4712	2624	1
1	4720	2628	1
1	4728	2632	1
1	4737	2636	1
1	4741	2640	1
1	4749	2644	1
1	4758	2648	1
1	4767	2652	1
1	4776	2656	1
1	4780	2660	1
1	4788	2664	1
1	4798	2668	1
1	4805	2672	1
1	4812	2676	1
1	4816	2680	1
1	4822	2684	1
1	4829	2688	1
1	4836	2692	1
1	4844	2696	1
1	4848	2700	1
1	4855	2704	1
1	4863	2708	1
1	4872	2712	1
1	4880	2716	1
1	4884	2720	1
1	4891	2724	1
1	4899	2728	1
1	4907	2732	1
1	4916	2736	1
1	4920	2740	1
1	4928	2744	1
1	4937	2748	1
1	4946	2752	1
1	4955	2756	1
1	4959	2760	1
1	4966	2764	1
1	4974	2768	1
1	4983	2772	1
1	4992	2776	1
1	4996	2780	1
1	5004	2784	1
1	5013	2788	1
1	5022	2792	1
1	5030	2796	1
1	5034	2800	1
1	5041	2804	1
1	5050	2808	1
1	5058	2812	1
1	5065	2816	1
1	5069	2820	1
1	5076	2824	1
1	5084	2828	1
1	5092	2832	1
1	5100	2836	1
1	5104	2840	1
1	5111	2844	1
1	5120	2848	1
1	5129	2852	1
1	5138	2856	1
1	5142	2860	1
1	5151	2864	1
1	5158	2868	1
1	5165	2872	1
1	5173	2876	1
1	5177	2880	1
1	5184	2884	1
1	5192	2888	1
1	5201	2892	1
1	5210	2896	1
1	5214	2900	1
1	5222	2904	1
1	5231	2908	1
1	5239	2912	1
1	5246	2916	1
1	5250	2920	1
1	5257	2924	1
1	5266	2928	1
1	5275	2932	1
1	5284	2936	1
1	5288	2940	1
1	5295	2944	1
1	5303	2948	1
1	5311	2952	1
1	5319	2956	1
1	5323	2960	1
1	5331	2964	1
1	5340	2968	1
1	5349	2972	1
1	5358	2976	1
1	5362	2980	1
1	5369	2984	1
1	5377	2988	1
1	5386	2992	1
1	5395	2996	1
1	5399	3000	1
1	5406	3004	1
1	5414	3008	1
1	5423	3012	1
1	5431	3016	1
1	5435	3020	1
1	5441	3024	1
1	5448	3028	1
1	5456	3032	1
1	5465	3036	1
1	5469	3040	1
1	5477	3044	1
1	5486	3048	1
1	5495	3052	1
1	5504	3056	1
1	5508	3060	1
1	5515	3064	1
1	5523	3068	1
1	5532	3072	1
1	5541	3076	1
1	5545	3080	1
1	5553	3084	1
1	5563	3088	1
1	5570	3092	1
1	5577	3096	1
1	5581	3100	1
1	5589	3104	1
1	5596	3108	1
1	5603	3112	1
1	5610	3116	1
1	5614	3120	1
1	5620	3124	1
1	5628	3128	1
1	5638	3132	1
1	5645	3136	1
1	5649	3140	1
1	5655	3144	1
1	5662	3148	1
1	5670	3152	1
1	5679	3156	1
1	5683	3160	1
1	5691	3164	1
1	5700	3168	1
1	5709	3172	1
1	5719	3176	1
1	5723	3180	1
1	5729	3184	1
1	5736	3188	1
1	5743	3192	1
1	5750	3196	1
1	5754	3200	1
1	5760	3204	1
1	5768	3208	1
1	5777	3212	1
1	5785	3216	1
1	5789	3220	1
1	5796	3224	1
1	5805	3228	1
1	5814	3232	1
1	5823	3236	1
1	5827	3240	1
1	5835	3244	1
1	5844	3248	1
1	5853	3252	1
1	5862	3256	1
1	5866	3260	1
1	5874	3264	1
1	5883	3268	1
1	5892	3272	1
1	5900	3276	1
1	5904	3280	1
1	5911	3284	1
1	5919	3288	1
1	5927	3292	1
1	5936	3296	1
1	5940	3300	1
1	5948	3304	1
1	5956	3308	1
1	5964	3312	1
1	5973	3316	1
1	5977	3320	1
1	5986	3324	1
1	5993	3328	1
1	6000	3332	1
1	6007	3336	1
1	6011	3340	1
1	6018	3344	1
1	6027	3348	1
1	6036	3352	1
1	6044	3356	1
1	6048	3360	1
1	6054	3364	1
1	6062	3368	1
1	6071	3372	1
1	6080	3376	1
1	6084	3380	1
1	6091	3384	1
1	6098	3388	1
1	6106	3392	1
1	6115	3396	1
1	6119	3400	1
1	6127	3404	1
1	6136	3408	1
1	6144	3412	1
1	6152	3416	1
1	6156	3420	1
1	6164	3424	1
1	6174	3428	1
1	6181	3432	1
1	6188	3436	1
1	6192	3440	1
1	6198	3444	1
1	6206	3448	1
1	6215	3452	1
1	6223	3456	1
1	6227	3460	1
1	6234	3464	1
1	6243	3468	1
1	6252	3472	1
1	6260	3476	1
1	6264	3480	1
1	6271	3484	1
1	6280	3488	1
1	6289	3492	1
1	6298	3496	1
1	6302	3500	1
1	6310	3504	1
1	6319	3508	1
1	6327	3512	1
1	6335	3516	1
1	6339	3520	1
1	6347	3524	1
1	6355	3528	1
1	6363	3532	1
1	6372	3536	1
1	6376	3540	1
1	6384	3544	1
1	6393	3548	1
1	6401	3552	1
1	6409	3556	1
1	6413	3560	1
1	6421	3564	1
1	6430	3568	1
1	6439	3572	1
1	6448	3576	1
1	6452	3580	1
1	6460	3584	1
1	6469	3588	1
1	6477	3592	1
1	6485	3596	1
1	6489	3600	1
2	3	4	1
2	12	8	1
2	20	12	1
2	28	16	1
2	32	20	1
2	39	24	1
2	48	28	1
2	58	32	1
2	65	36	1
2	69	40	1
2	76	44	1
2	85	48	1
2	93	52	1
2	102	56	1
2	106	60	1
2	112	64	1
2	119	68	1
2	126	72	1
2	134	76	1
2	138	80	1
2	146	84	1
2	156	88	1
2	164	92	1
2	173	96	1
2	177	100	1
2	186	104	1
2	193	108	1
2	200	112	1
2	207	116	1
2	211	120	1
2	218	124	1
2	228	128	1
2	235	132	1
2	242	136	1
2	246	140	1
2	252	144	1
2	261	148	1
2	268	152	1
2	275	156	1
2	279	160	1
2	286	164	1
2	294	168	1
2	302	172	1
2	310	176	1
2	314	180	1
2	321	184	1
2	330	188	1
2	339	192	1
2	349	196	1
2	353	200	1
2	359	204	1
2	366	208	1
2	373	212	1
2	380	216	1
2	384	220	1
2	391	224	1
2	400	228	1
2	410	232	1
2	418	236	1
2	422	240	1
2	430	244	1
2	439	248	1
2	447	252	1
2	455	256	1
2	459	260	1
2	468	264	1
2	475	268	1
2	482	272	1
2	492	276	1
2	496	280	1
2	502	284	1
2	509	288	1
2	516	292	1
2	523	296	1
2	527	300	1
2	533	304	1
2	540	308	1
2	547	312	1
2	554	316	1
2	558	320	1
2	565	324	1
2	574	328	1
2	584	332	1
2	591	336	1
2	595	340	1
2	601	344	1
2	608	348	1
2	616	352	1
2	625	356	1
2	629	360	1
2	638	364	1
2	646	368	1
2	655	372	1
2	664	376	1
2	668	380	1
2	676	384	1
2	685	388	1
2	694	392	1
2	703	396	1
2	707	400	1
2	717	404	1
2	724	408	1
2	731	412	1
2	739	416	1
2	743	420	1
2	751	424	1
2	760	428	1
2	769	432	1
2	778	436	1
2	782	440	1
2	789	444	1
2	797	448	1
2	805	452	1
2	813	456	1
2	817	460	1
2	825	464	1
2	835	468	1
2	842	472	1
2	849	476	1
2	853	480	1
2	859	484	1
2	866	488	1
2	875	492	1
2	882	496	1
2	886	500	1
2	892	504	1
2	899	508	1
2	906	512	1
2	913	516	1
2	917	520	1
2	924	524	1
2	932	528	1
2	940	532	1
2	950	536	1
2	954	540	1
2	960	544	1
2	967	548	1
2	975	552	1
2	985	556	1
2	989	560	1
2	995	564	1
2	1002	568	1
2	1009	572	1
2	1017	576	1
2	1021	580	1
2	1030	584	1
2	1037	588	1
2	1044	592	1
2	1051	596	1
2	1055	600	1
2	1061	604	1
2	1068	608	1
2	1076	612	1
2	1085	616	1
2	1089	620	1
2	1098	624	1
2	1105	628	1
2	1112	632	1
2	1119	636	1
2	1123	640	1
2	1129	644	1
2	1137	648	1
2	1147	652	1
2	1154	656	1
2	1158	660	1
2	1164	664	1
2	1171	668	1
2	1178	672	1
2	1186	676	1
2	1190	680	1
2	1198	684	1
2	1207	688	1
2	1217	692	1
2	1224	696	1
2	1228	700	1
2	1234	704	1
2	1241	708	1
2	1250	712	1
2	1257	716	1
2	1261	720	1
2	1267	724	1
2	1275	728	1
2	1284	732	1
2	1293	736	1
2	1297	740	1
2	1305	744	1
2	1314	748	1
2	1322	752	1
2	1330	756	1
2	1334	760	1
2	1343	764	1
2	1350	768	1
2	1357	772	1
2	1365	776	1
2	1369	780	1
2	1378	784	1
2	1385	788	1
2	1392	792	1
2	1400	796	1
2	1404	800	1
2	1412	804	1
2	1422	808	1
2	1429	812	1
2	1436	816	1
2	1440	820	1
2	1446	824	1
2	1453	828	1
2	1460	832	1
2	1469	836	1
2	1473	840	1
2	1479	844	1
2	1486	848	1
2	1493	852	1
2	1500	856	1
2	1504	860	1
2	1510	864	1
2	1517	868	1
2	1526	872	1
2	1533	876	1
2	1537	880	1
2	1543	884	1
2	1550	888	1
2	1558	892	1
2	1567	896	1
2	1571	900	1
2	1578	904	1
2	1585	908	1
2	1593	912	1
2	1602	916	1
2	1606	920	1
2	1613	924	1
2	1621	928	1
2	1630	932	1
2	1639	936	1
2	1643	940	1
2	1651	944	1
2	1660	948	1
2	1669	952	1
2	1678	956	1
2	1682	960	1
2	1690	964	1
2	1699	968	1
2	1708	972	1
2	1716	976	1
2	1720	980	1
2	1727	984	1
2	1737	988	1
2	1744	992	1
2	1751	996	1
2	1755	1000	1
2	1762	1004	1
2	1771	1008	1
2	1780	1012	1
2	1789	1016	1
2	1793	1020	1
2	1801	1024	1
2	1810	1028	1
2	1819	1032	1
2	1828	1036	1
2	1832	1040	1
2	1839	1044	1
2	1847	1048	1
2	1856	1052	1
2	1865	1056	1
2	1869	1060	1
2	1877	1064	1
2	1885	1068	1
2	1893	1072	1
2	1902	1076	1
2	1906	1080	1
2	1914	1084	1
2	1923	1088	1
2	1931	1092	1
2	1939	1096	1
2	1943	1100	1
2	1951	1104	1
2	1959	1108	1
2	1967	1112	1
2	1976	1116	1
2	1980	1120	1
2	1988	1124	1
2	1997	1128	1
2	2006	1132	1
2	2015	1136	1
2	2019	1140	1
2	2027	1144	1
2	2036	1148	1
2	2045	1152	1
2	2054	1156	1
2	2058	1160	1
2	2066	1164	1
2	2074	1168	1
2	2081	1172	1
2	2089	1176	1
2	2093	1180	1
2	2102	1184	1
2	2109	1188	1
2	2116	1192	1
2	2123	1196	1
2	2127	1200	1
2	2134	1204	1
2	2143	1208	1
2	2152	1212	1
2	2161	1216	1
2	2165	1220	1
2	2173	1224	1
2	2181	1228	1
2	2189	1232	1
2	2198	1236	1
2	2202	1240	1
2	2210	1244	1
2	2219	1248	1
2	2227	1252	1
2	2235	1256	1
2	2239	1260	1
2	2247	1264	1
2	2256	1268	1
2	2265	1272	1
2	2274	1276	1
2	2278	1280	1
2	2286	1284	1
2	2295	1288	1
2	2303	1292	1
2	2311	1296	1
2	2315	1300	1
2	2323	1304	1
2	2332	1308	1
2	2341	1312	1
2	2350	1316	1
2	2354	1320	1
2	2362	1324	1
2	2371	1328	1
2	2379	1332	1
2	2386	1336	1
2	2390	1340	1
2	2397	1344	1
2	2406	1348	1
2	2415	1352	1
2	2424	1356	1
2	2428	1360	1
2	2435	1364	1
2	2444	1368	1
2	2451	1372	1
2	2458	1376	1
2	2462	1380	1
2	2469	1384	1
2	2477	1388	1
2	2485	1392	1
2	2494	1396	1
2	2498	1400	1
2	2506	1404	1
2	2515	1408	1
2	2523	1412	1
2	2531	1416	1
2	2535	1420	1
2	2543	1424	1
2	2552	1428	1
2	2561	1432	1
2	2571	1436	1
2	2575	1440	1
2	2581	1444	1
2	2588	1448	1
2	2595	1452	1
2	2602	1456	1
2	2606	1460	1
2	2612	1464	1
2	2620	1468	1
2	2628	1472	1
2	2637	1476	1
2	2641	1480	1
2	2647	1484	1
2	2654	1488	1
2	2661	1492	1
2	2669	1496	1
2	2673	1500	1
2	2681	1504	1
2	2690	1508	1
2	2698	1512	1
2	2706	1516	1
2	2710	1520	1
2	2718	1524	1
2	2728	1528	1
2	2735	1532	1
2	2742	1536	1
2	2746	1540	1
2	2752	1544	1
2	2759	1548	1
2	2767	1552	1
2	2776	1556	1
2	2780	1560	1
2	2788	1564	1
2	2798	1568	1
2	2805	1572	1
2	2812	1576	1
2	2816	1580	1
2	2823	1584	1
2	2832	1588	1
2	2841	1592	1
2	2850	1596	1
2	2854	1600	1
2	2863	1604	1
2	2870	1608	1
2	2877	1612	1
2	2884	1616	1
2	2888	1620	1
2	2895	1624	1
2	2905	1628	1
2	2913	1632	1
2	2922	1636	1
2	2926	1640	1
2	2934	1644	1
2	2943	1648	1
2	2952	1652	1
2	2962	1656	1
2	2966	1660	1
2	2972	1664	1
2	2979	1668	1
2	2986	1672	1
2	2993	1676	1
2	2997	1680	1
2	3004	1684	1
2	3014	1688	1
2	3021	1692	1
2	3028	1696	1
2	3032	1700	1
2	3038	1704	1
2	3046	1708	1
2	3055	1712	1
2	3064	1716	1
2	3068	1720	1
2	3075	1724	1
2	3082	1728	1
2	3090	1732	1
2	3100	1736	1
2	3104	1740	1
2	3110	1744	1
2	3117	1748	1
2	3125	1752	1
2	3134	1756	1
2	3138	1760	1
2	3146	1764	1
2	3154	1768	1
2	3162	1772	1
2	3171	1776	1
2	3175	1780	1
2	3182	1784	1
2	3190	1788	1
2	3199	1792	1
2	3208	1796	1
2	3212	1800	1
2	3220	1804	1
2	3229	1808	1
2	3238	1812	1
2	3247	1816	1
2	3251	1820	1
2	3259	1824	1
2	3267	1828	1
2	3276	1832	1
2	3283	1836	1
2	3287	1840	1
2	3293	1844	1
2	3300	1848	1
2	3308	1852	1
2	3317	1856	1
2	3321	1860	1
2	3330	1864	1
2	3337	1868	1
2	3344	1872	1
2	3352	1876	1
2	3356	1880	1
2	3363	1884	1
2	3371	1888	1
2	3381	1892	1
2	3388	1896	1
2	3392	1900	1
2	3398	1904	1
2	3405	1908	1
2	3412	1912	1
2	3421	1916	1
2	3425	1920	1
2	3431	1924	1
2	3438	1928	1
2	3445	1932	1
2	3453	1936	1
2	3457	1940	1
2	3465	1944	1
2	3474	1948	1
2	3483	1952	1
2	3492	1956	1
2	3496	1960	1
2	3504	1964	1
2	3514	1968	1
2	3521	1972	1
2	3528	1976	1
2	3532	1980	1
2	3539	1984	1
2	3548	1988	1
2	3558	1992	1
2	3565	1996	1
2	3569	2000	1
2	3575	2004	1
2	3582	2008	1
2	3590	2012	1
2	3600	2016	1
2	3604	2020	1
2	3610	2024	1
2	3617	2028	1
2	3624	2032	1
2	3632	2036	1
2	3636	2040	1
2	3644	2044	1
2	3652	2048	1
2	3660	2052	1
2	3668	2056	1
2	3672	2060	1
2	3679	2064	1
2	3688	2068	1
2	3697	2072	1
2	3706	2076	1
2	3710	2080	1
2	3717	2084	1
2	3725	2088	1
2	3734	2092	1
2	3743	2096	1
2	3747	2100	1
2	3756	2104	1
2	3763	2108	1
2	3770	2112	1
2	3778	2116	1
2	3782	2120	1
2	3790	2124	1
2	3798	2128	1
2	3806	2132	1
2	3815	2136	1
2	3819	2140	1
2	3827	2144	1
2	3836	2148	1
2	3845	2152	1
2	3854	2156	1
2	3858	2160	1
2	3865	2164	1
2	3873	2168	1
2	3882	2172	1
2	3891	2176	1
2	3895	2180	1
2	3903	2184	1
2	3912	2188	1
2	3920	2192	1
2	3928	2196	1
2	3932	2200	1
2	3940	2204	1
2	3949	2208	1
2	3957	2212	1
2	3965	2216	1
2	3969	2220	1
2	3977	2224	1
2	3986	2228	1
2	3996	2232	1
2	4003	2236	1
2	4007	2240	1
2	4013	2244	1
2	4021	2248	1
2	4030	2252	1
2	4039	2256	1
2	4043	2260	1
2	4051	2264	1
2	4060	2268	1
2	4069	2272	1
2	4078	2276	1
2	4082	2280	1
2	4090	2284	1
2	4099	2288	1
2	4108	2292	1
2	4116	2296	1
2	4120	2300	1
2	4127	2304	1
2	4136	2308	1
2	4145	2312	1
2	4154	2316	1
2	4158	2320	1
2	4166	2324	1
2	4174	2328	1
2	4182	2332	1
2	4191	2336	1
2	4195	2340	1
2	4203	2344	1
2	4211	2348	1
2	4218	2352	1
2	4226	2356	1
2	4230	2360	1
2	4238	2364	1
2	4247	2368	1
2	4256	2372	1
2	4265	2376	1
2	4269	2380	1
2	4276	2384	1
2	4284	2388	1
2	4293	2392	1
2	4302	2396	1
2	4306	2400	1
2	4314	2404	1
2	4323	2408	1
2	4332	2412	1
2	4341	2416	1
2	4345	2420	1
2	4353	2424	1
2	4361	2428	1
2	4368	2432	1
2	4375	2436	1
2	4379	2440	1
2	4386	2444	1
2	4395	2448	1
2	4404	2452	1
2	4413	2456	1
2	4417	2460	1
2	4426	2464	1
2	4433	2468	1
2	4440	2472	1
2	4447	2476	1
2	4451	2480	1
2	4457	2484	1
2	4464	2488	1
2	4471	2492	1
2	4479	2496	1
2	4483	2500	1
2	4491	2504	1
2	4499	2508	1
2	4507	2512	1
2	4516	2516	1
2	4520	2520	1
2	4528	2524	1
2	4537	2528	1
2	4546	2532	1
2	4554	2536	1
2	4558	2540	1
2	4565	2544	1
2	4573	2548	1
2	4581	2552	1
2	4589	2556	1
2	4593	2560	1
2	4600	2564	1
2	4608	2568	1
2	4616	2572	1
2	4625	2576	1
2	4629	2580	1
2	4637	2584	1
2	4645	2588	1
2	4653	2592	1
2	4662	2596	1
2	4666	2600	1
2	4674	2604	1
2	4683	2608	1
2	4692	2612	1
2	4701	2616	1
2	4705	2620	1
2	4713	2624	1
2	4721	2628	1
2	4729	2632	1
2	4738	2636	1
2	4742	2640	1
2	4750	2644	1
2	4759	2648	1
2	4768	2652	1
2	4777	2656	1
2	4781	2660	1
2	4789	2664	1
2	4799	2668	1
2	4806	2672	1
2	4813	2676	1
2	4817	2680	1
2	4823	2684	1
2	4830	2688	1
2	4837	2692	1
2	4845	2696	1
2	4849	2700	1
2	4856	2704	1
2	4864	2708	1
2	4873	2712	1
2	4881	2716	1
2	4885	2720	1
2	4892	2724	1
2	4900	2728	1
2	4908	2732	1
2	4917	2736	1
2	4921	2740	1
2	4929	2744	1
2	4938	2748	1
2	4947	2752	1
2	4956	2756	1
2	4960	2760	1
2	4967	2764	1
2	4975	2768	1
2	4984	2772	1
2	4993	2776	1
2	4997	2780	1
2	5005	2784	1
2	5014	2788	1
2	5023	2792	1
2	5031	2796	1
2	5035	2800	1
2	5042	2804	1
2	5051	2808	1
2	5059	2812	1
2	5066	2816	1
2	5070	2820	1
2	5077	2824	1
2	5085	2828	1
2	5093	2832	1
2	5101	2836	1
2	5105	2840	1
2	5112	2844	1
2	5121	2848	1
2	5130	2852	1
2	5139	2856	1
2	5143	2860	1
2	5152	2864	1
2	5159	2868	1
2	5166	2872	1
2	5174	2876	1
2	5178	2880	1
2	5185	2884	1
2	5193	2888	1
2	5202	2892	1
2	5211	2896	1
2	5215	2900	1
2	5223	2904	1
2	5232	2908	1
2	5240	2912	1
2	5247	2916	1
2	5251	2920	1
2	5258	2924	1
2	5267	2928	1
2	5276	2932	1
2	5285	2936	1
2	5289	2940	1
2	5296	2944	1
2	5304	2948	1
2	5312	2952	1
2	5320	2956	1
2	5324	2960	1
2	5332	2964	1
2	5341	2968	1
2	5350	2972	1
2	5359	2976	1
2	5363	2980	1
2	5370	2984	1
2	5378	2988	1
2	5387	2992	1
2	5396	2996	1
2	5400	3000	1
2	5407	3004	1
2	5415	3008	1
2	5424	3012	1
2	5432	3016	1
2	5436	3020	1
2	5442	3024	1
2	5449	3028	1
2	5457	3032	1
2	5466	3036	1
2	5470	3040	1
2	5478	3044	1
2	5487	3048	1
2	5496	3052	1
2	5505	3056	1
2	5509	3060	1
2	5516	3064	1
2	5524	3068	1
2	5533	3072	1
2	5542	3076	1
2	5546	3080	1
2	5554	3084	1
2	5564	3088	1
2	5571	3092	1
2	5578	3096	1
2	5582	3100	1
2	5590	3104	1
2	5597	3108	1
2	5604	3112	1
2	5611	3116	1
2	5615	3120	1
2	5621	3124	1
2	5629	3128	1
2	5639	3132	1
2	5646	3136	1
2	5650	3140	1
2	5656	3144	1
2	5663	3148	1
2	5671	3152	1
2	5680	3156	1
2	5684	3160	1
2	5692	3164	1
2	5701	3168	1
2	5710	3172	1
2	5720	3176	1
2	5724	3180	1
2	5730	3184	1
2	5737	3188	1
2	5744	3192	1
2	5751	3196	1
2	5755	3200	1
2	5761	3204	1
2	5769	3208	1
2	5778	3212	1
2	5786	3216	1
2	5790	3220	1
2	5797	3224	1
2	5806	3228	1
2	5815	3232	1
2	5824	3236	1
2	5828	3240	1
2	5836	3244	1
2	5845	3248	1
2	5854	3252	1
2	5863	3256	1
2	5867	3260	1
2	5875	3264	1
2	5884	3268	1
2	5893	3272	1
2	5901	3276	1
2	5905	3280	1
2	5912	3284	1
2	5920	3288	1
2	5928	3292	1
2	5937	3296	1
2	5941	3300	1
2	5949	3304	1
2	5957	3308	1
2	5965	3312	1
2	5974	3316	1
2	5978	3320	1
2	5987	3324	1
2	5994	3328	1
2	6001	3332	1
2	6008	3336	1
2	6012	3340	1
2	6019	3344	1
2	6028	3348	1
2	6037	3352	1
2	6045	3356	1
2	6049	3360	1
2	6055	3364	1
2	6063	3368	1
2	6072	3372	1
2	6081	3376	1
2	6085	3380	1
2	6092	3384	1
2	6099	3388	1
2	6107	3392	1
2	6116	3396	1
2	6120	3400	1
2	6128	3404	1
2	6137	3408	1
2	6145	3412	1
2	6153	3416	1
2	6157	3420	1
2	6165	3424	1
2	6175	3428	1
2	6182	3432	1
2	6189	3436	1
2	6193	3440	1
2	6199	3444	1
2	6207	3448	1
2	6216	3452	1
2	6224	3456	1
2	6228	3460	1
2	6235	3464	1
2	6244	3468	1
2	6253	3472	1
2	6261	3476	1
2	6265	3480	1
2	6272	3484	1
2	6281	3488	1
2	6290	3492	1
2	6299	3496	1
2	6303	3500	1
2	6311	3504	1
2	6320	3508	1
2	6328	3512	1
2	6336	3516	1
2	6340	3520	1
2	6348	3524	1
2	6356	3528	1
2	6364	3532	1
2	6373	3536	1
2	6377	3540	1
2	6385	3544	1
2	6394	3548	1
2	6402	3552	1
2	6410	3556	1
2	6414	3560	1
2	6422	3564	1
2	6431	3568	1
2	6440	3572	1
2	6449	3576	1
2	6453	3580	1
2	6461	3584	1
2	6470	3588	1
2	6478	3592	1
2	6486	3596	1
2	6490	3600	1
3	4	5	0
3	13	10	0
3	21	15	1
3	29	20	0
3	40	25	1
3	49	30	1
3	59	35	0
3	66	40	0
3	77	45	1
3	86	50	1
3	94	55	0
3	103	60	0
3	113	65	0
3	120	70	0
3	127	75	0
3	135	80	1
3	147	85	1
3	157	90	0
3	165	95	1
3	174	100	1
3	187	105	0
3	194	110	0
3	201	115	0
3	208	120	0
3	219	125	1
3	229	130	0
3	236	135	0
3	243	140	0
3	253	145	0
3	262	150	0
3	269	155	0
3	276	160	0
3	287	165	1
3	295	170	0
3	303	175	1
3	311	180	0
3	322	185	1
3	331	190	1
3	340	195	1
3	350	200	0
3	360	205	0
3	367	210	0
3	374	215	0
3	381	220	0
3	392	225	1
3	401	230	1
3	411	235	0
3	419	240	1
3	431	245	1
3	440	250	1
3	448	255	0
3	456	260	1
3	469	265	0
3	476	270	0
3	483	275	0
3	493	280	0
3	503	285	0
3	510	290	0
3	517	295	0
3	524	300	0
3	534	305	0
3	541	310	0
3	548	315	0
3	555	320	0
3	566	325	1
3	575	330	1
3	585	335	0
3	592	340	0
3	602	345	0
3	609	350	0
3	617	355	1
3	626	360	1
3	639	365	0
3	647	370	1
3	656	375	1
3	665	380	1
3	677	385	1
3	686	390	1
3	695	395	1
3	704	400	1
3	718	405	0
3	725	410	0
3	732	415	0
3	740	420	1
3	752	425	1
3	761	430	1
3	770	435	1
3	779	440	1
3	790	445	0
3	798	450	1
3	806	455	0
3	814	460	1
3	826	465	1
3	836	470	0
3	843	475	0
3	850	480	0
3	860	485	0
3	867	490	0
3	876	495	0
3	883	500	0
3	893	505	0
3	900	510	0
3	907	515	0
3	914	520	0
3	925	525	1
3	933	530	0
3	941	535	1
3	951	540	0
3	961	545	0
3	968	550	0
3	976	555	1
3	986	560	0
3	996	565	0
3	1003	570	0
3	1010	575	0
3	1018	580	1
3	1031	585	0
3	1038	590	0
3	1045	595	0
3	1052	600	0
3	1062	605	0
3	1069	610	0
3	1077	615	1
3	1086	620	1
3	1099	625	0
3	1106	630	0
3	1113	635	0
3	1120	640	0
3	1130	645	0
3	1138	650	1
3	1148	655	0
3	1155	660	0
3	1165	665	0
3	1172	670	0
3	1179	675	0
3	1187	680	1
3	1199	685	1
3	1208	690	1
3	1218	695	0
3	1225	700	0
3	1235	705	0
3	1242	710	0
3	1251	715	0
3	1258	720	0
3	1268	725	0
3	1276	730	1
3	1285	735	1
3	1294	740	1
3	1306	745	1
3	1315	750	1
3	1323	755	0
3	1331	760	1
3	1344	765	0
3	1351	770	0
3	1358	775	0
3	1366	780	1
3	1379	785	0
3	1386	790	0
3	1393	795	0
3	1401	800	1
3	1413	805	1
3	1423	810	0
3	1430	815	0
3	1437	820	0
3	1447	825	0
3	1454	830	0
3	1461	835	0
3	1470	840	0
3	1480	845	0
3	1487	850	0
3	1494	855	0
3	1501	860	0
3	1511	865	0
3	1518	870	0
3	1527	875	0
3	1534	880	0
3	1544	885	0
3	1551	890	0
3	1559	895	1
3	1568	900	1
3	1579	905	0
3	1586	910	0
3	1594	915	1
3	1603	920	1
3	1614	925	0
3	1622	930	1
3	1631	935	1
3	1640	940	1
3	1652	945	1
3	1661	950	1
3	1670	955	1
3	1679	960	1
3	1691	965	1
3	1700	970	1
3	1709	975	1
3	1717	980	0
3	1728	985	1
3	1738	990	0
3	1745	995	0
3	1752	1000	0
3	1763	1005	1
3	1772	1010	1
3	1781	1015	1
3	1790	1020	1
3	1802	1025	1
3	1811	1030	1
3	1820	1035	1
3	1829	1040	1
3	1840	1045	0
3	1848	1050	1
3	1857	1055	1
3	1866	1060	1
3	1878	1065	1
3	1886	1070	0
3	1894	1075	1
3	1903	1080	1
3	1915	1085	1
3	1924	1090	1
3	1932	1095	0
3	1940	1100	1
3	1952	1105	1
3	1960	1110	0
3	1968	1115	1
3	1977	1120	1
3	1989	1125	1
3	1998	1130	1
3	2007	1135	1
3	2016	1140	1
3	2028	1145	1
3	2037	1150	1
3	2046	1155	1
3	2055	1160	1
3	2067	1165	1
3	2075	1170	0
3	2082	1175	0
3	2090	1180	1
3	2103	1185	0
3	2110	1190	0
3	2117	1195	0
3	2124	1200	0
3	2135	1205	1
3	2144	1210	1
3	2153	1215	1
3	2162	1220	1
3	2174	1225	1
3	2182	1230	0
3	2190	1235	1
3	2199	1240	1
3	2211	1245	1
3	2220	1250	1
3	2228	1255	0
3	2236	1260	1
3	2248	1265	1
3	2257	1270	1
3	2266	1275	1
3	2275	1280	1
3	2287	1285	1
3	2296	1290	1
3	2304	1295	0
3	2312	1300	1
3	2324	1305	1
3	2333	1310	1
3	2342	1315	1
3	2351	1320	1
3	2363	1325	1
3	2372	1330	1
3	2380	1335	0
3	2387	1340	0
3	2398	1345	1
3	2407	1350	1
3	2416	1355	1
3	2425	1360	1
3	2436	1365	0
3	2445	1370	0
3	2452	1375	0
3	2459	1380	0
3	2470	1385	1
3	2478	1390	0
3	2486	1395	1
3	2495	1400	1
3	2507	1405	1
3	2516	1410	1
3	2524	1415	0
3	2532	1420	1
3	2544	1425	1
3	2553	1430	1
3	2562	1435	1
3	2572	1440	0
3	2582	1445	0
3	2589	1450	0
3	2596	1455	0
3	2603	1460	0
3	2613	1465	0
3	2621	1470	1
3	2629	1475	0
3	2638	1480	0
3	2648	1485	0
3	2655	1490	0
3	2662	1495	0
3	2670	1500	1
3	2682	1505	1
3	2691	1510	1
3	2699	1515	0
3	2707	1520	1
3	2719	1525	1
3	2729	1530	0
3	2736	1535	0
3	2743	1540	0
3	2753	1545	0
3	2760	1550	0
3	2768	1555	1
3	2777	1560	1
3	2789	1565	1
3	2799	1570	0
3	2806	1575	0
3	2813	1580	0
3	2824	1585	1
3	2833	1590	1
3	2842	1595	1
3	2851	1600	1
3	2864	1605	0
3	2871	1610	0
3	2878	1615	0
3	2885	1620	0
3	2896	1625	1
3	2906	1630	0
3	2914	1635	1
3	2923	1640	1
3	2935	1645	1
3	2944	1650	1
3	2953	1655	1
3	2963	1660	0
3	2973	1665	0
3	2980	1670	0
3	2987	1675	0
3	2994	1680	0
3	3005	1685	1
3	3015	1690	0
3	3022	1695	0
3	3029	1700	0
3	3039	1705	0
3	3047	1710	1
3	3056	1715	1
3	3065	1720	1
3	3076	1725	0
3	3083	1730	0
3	3091	1735	1
3	3101	1740	0
3	3111	1745	0
3	3118	1750	0
3	3126	1755	1
3	3135	1760	1
3	3147	1765	1
3	3155	1770	0
3	3163	1775	1
3	3172	1780	1
3	3183	1785	0
3	3191	1790	1
3	3200	1795	1
3	3209	1800	1
3	3221	1805	1
3	3230	1810	1
3	3239	1815	1
3	3248	1820	1
3	3260	1825	1
3	3268	1830	0
3	3277	1835	0
3	3284	1840	0
3	3294	1845	0
3	3301	1850	0
3	3309	1855	1
3	3318	1860	1
3	3331	1865	0
3	3338	1870	0
3	3345	1875	0
3	3353	1880	1
3	3364	1885	0
3	3372	1890	1
3	3382	1895	0
3	3389	1900	0
3	3399	1905	0
3	3406	1910	0
3	3413	1915	0
3	3422	1920	0
3	3432	1925	0
3	3439	1930	0
3	3446	1935	0
3	3454	1940	1
3	3466	1945	1
3	3475	1950	1
3	3484	1955	1
3	3493	1960	1
3	3505	1965	1
3	3515	1970	0
3	3522	1975	0
3	3529	1980	0
3	3540	1985	1
3	3549	1990	1
3	3559	1995	0
3	3566	2000	0
3	3576	2005	0
3	3583	2010	0
3	3591	2015	1
3	3601	2020	0
3	3611	2025	0
3	3618	2030	0
3	3625	2035	0
3	3633	2040	1
3	3645	2045	1
3	3653	2050	0
3	3661	2055	1
3	3669	2060	0
3	3680	2065	1
3	3689	2070	1
3	3698	2075	1
3	3707	2080	1
3	3718	2085	0
3	3726	2090	1
3	3735	2095	1
3	3744	2100	1
3	3757	2105	0
3	3764	2110	0
3	3771	2115	0
3	3779	2120	1
3	3791	2125	1
3	3799	2130	0
3	3807	2135	1
3	3816	2140	1
3	3828	2145	1
3	3837	2150	1
3	3846	2155	1
3	3855	2160	1
3	3866	2165	0
3	3874	2170	1
3	3883	2175	1
3	3892	2180	1
3	3904	2185	1
3	3913	2190	1
3	3921	2195	0
3	3929	2200	1
3	3941	2205	1
3	3950	2210	1
3	3958	2215	0
3	3966	2220	1
3	3978	2225	1
3	3987	2230	1
3	3997	2235	0
3	4004	2240	0
3	4014	2245	0
3	4022	2250	1
3	4031	2255	1
3	4040	2260	1
3	4052	2265	1
3	4061	2270	1
3	4070	2275	1
3	4079	2280	1
3	4091	2285	1
3	4100	2290	1
3	4109	2295	1
3	4117	2300	0
3	4128	2305	1
3	4137	2310	1
3	4146	2315	1
3	4155	2320	1
3	4167	2325	1
3	4175	2330	0
3	4183	2335	1
3	4192	2340	1
3	4204	2345	1
3	4212	2350	0
3	4219	2355	0
3	4227	2360	1
3	4239	2365	1
3	4248	2370	1
3	4257	2375	1
3	4266	2380	1
3	4277	2385	0
3	4285	2390	1
3	4294	2395	1
3	4303	2400	1
3	4315	2405	1
3	4324	2410	1
3	4333	2415	1
3	4342	2420	1
3	4354	2425	1
3	4362	2430	0
3	4369	2435	0
3	4376	2440	0
3	4387	2445	1
3	4396	2450	1
3	4405	2455	1
3	4414	2460	1
3	4427	2465	0
3	4434	2470	0
3	4441	2475	0
3	4448	2480	0
3	4458	2485	0
3	4465	2490	0
3	4472	2495	0
3	4480	2500	1
3	4492	2505	1
3	4500	2510	0
3	4508	2515	1
3	4517	2520	1
3	4529	2525	1
3	4538	2530	1
3	4547	2535	1
3	4555	2540	0
3	4566	2545	1
3	4574	2550	0
3	4582	2555	1
3	4590	2560	0
3	4601	2565	1
3	4609	2570	0
3	4617	2575	1
3	4626	2580	1
3	4638	2585	1
3	4646	2590	0
3	4654	2595	1
3	4663	2600	1
3	4675	2605	1
3	4684	2610	1
3	4693	2615	1
3	4702	2620	1
3	4714	2625	1
3	4722	2630	0
3	4730	2635	1
3	4739	2640	1
3	4751	2645	1
3	4760	2650	1
3	4769	2655	1
3	4778	2660	1
3	4790	2665	1
3	4800	2670	0
3	4807	2675	0
3	4814	2680	0
3	4824	2685	0
3	4831	2690	0
3	4838	2695	0
3	4846	2700	1
3	4857	2705	0
3	4865	2710	1
3	4874	2715	1
3	4882	2720	0
3	4893	2725	1
3	4901	2730	0
3	4909	2735	1
3	4918	2740	1
3	4930	2745	1
3	4939	2750	1
3	4948	2755	1
3	4957	2760	1
3	4968	2765	0
3	4976	2770	1
3	4985	2775	1
3	4994	2780	1
3	5006	2785	1
3	5015	2790	1
3	5024	2795	1
3	5032	2800	0
3	5043	2805	1
3	5052	2810	1
3	5060	2815	0
3	5067	2820	0
3	5078	2825	1
3	5086	2830	0
3	5094	2835	1
3	5102	2840	0
3	5113	2845	1
3	5122	2850	1
3	5131	2855	1
3	5140	2860	1
3	5153	2865	0
3	5160	2870	0
3	5167	2875	0
3	5175	2880	1
3	5186	2885	0
3	5194	2890	1
3	5203	2895	1
3	5212	2900	1
3	5224	2905	1
3	5233	2910	1
3	5241	2915	0
3	5248	2920	0
3	5259	2925	1
3	5268	2930	1
3	5277	2935	1
3	5286	2940	1
3	5297	2945	0
3	5305	2950	1
3	5313	2955	0
3	5321	2960	1
3	5333	2965	1
3	5342	2970	1
3	5351	2975	1
3	5360	2980	1
3	5371	2985	0
3	5379	2990	1
3	5388	2995	1
3	5397	3000	1
3	5408	3005	0
3	5416	3010	1
3	5425	3015	1
3	5433	3020	0
3	5443	3025	0
3	5450	3030	0
3	5458	3035	1
3	5467	3040	1
3	5479	3045	1
3	5488	3050	1
3	5497	3055	1
3	5506	3060	1
3	5517	3065	0
3	5525	3070	1
3	5534	3075	1
3	5543	3080	1
3	5555	3085	1
3	5565	3090	0
3	5572	3095	0
3	5579	3100	0
3	5591	3105	0
3	5598	3110	0
3	5605	3115	0
3	5612	3120	0
3	5622	3125	0
3	5630	3130	1
3	5640	3135	0
3	5647	3140	0
3	5657	3145	0
3	5664	3150	0
3	5672	3155	1
3	5681	3160	1
3	5693	3165	1
3	5702	3170	1
3	5711	3175	1
3	5721	3180	0
3	5731	3185	0
3	5738	3190	0
3	5745	3195	0
3	5752	3200	0
3	5762	3205	0
3	5770	3210	1
3	5779	3215	1
3	5787	3220	0
3	5798	3225	1
3	5807	3230	1
3	5816	3235	1
3	5825	3240	1
3	5837	3245	1
3	5846	3250	1
3	5855	3255	1
3	5864	3260	1
3	5876	3265	1
3	5885	3270	1
3	5894	3275	1
3	5902	3280	0
3	5913	3285	1
3	5921	3290	0
3	5929	3295	1
3	5938	3300	1
3	5950	3305	1
3	5958	3310	0
3	5966	3315	1
3	5975	3320	1
3	5988	3325	0
3	5995	3330	0
3	6002	3335	0
3	6009	3340	0
3	6020	3345	1
3	6029	3350	1
3	6038	3355	1
3	6046	3360	0
3	6056	3365	0
3	6064	3370	1
3	6073	3375	1
3	6082	3380	1
3	6093	3385	0
3	6100	3390	0
3	6108	3395	1
3	6117	3400	1
3	6129	3405	1
3	6138	3410	1
3	6146	3415	0
3	6154	3420	1
3	6166	3425	1
3	6176	3430	0
3	6183	3435	0
3	6190	3440	0
3	6200	3445	0
3	6208	3450	1
3	6217	3455	1
3	6225	3460	0
3	6236	3465	1
3	6245	3470	1
3	6254	3475	1
3	6262	3480	0
3	6273	3485	1
3	6282	3490	1
3	6291	3495	1
3	6300	3500	1
3	6312	3505	1
3	6321	3510	1
3	6329	3515	0
3	6337	3520	1
3	6349	3525	1
3	6357	3530	0
3	6365	3535	1
3	6374	3540	1
3	6386	3545	1
3	6395	3550	1
3	6403	3555	0
3	6411	3560	1
3	6423	3565	1
3	6432	3570	1
3	6441	3575	1
3	6450	3580	1
3	6462	3585	1
3	6471	3590	1
3	6479	3595	0
3	6487	3600	1
4	23	15	1
4	42	25	1
4	51	30	1
4	167	95	1
4	179	100	1
4	289	165	1
4	305	175	1
4	324	185	1
4	333	190	1
4	394	225	1
4	403	230	1
4	461	260	1
4	577	330	1
4	927	525	1
4	978	555	1
4	1091	620	1
4	1140	650	1
4	1192	680	1
4	1210	690	1
4	1371	780	1
4	5557	3085	1
5	23	15	11
5	42	25	17
5	51	30	18
5	167	95	79
5	179	100	80
5	289	165	141
5	305	175	147
5	324	185	153
5	333	190	94
5	394	225	121
5	403	230	62
5	461	260	84
5	577	330	142
5	927	525	333
5	978	555	327
5	1091	620	388
5	1140	650	386
5	1192	680	348
5	1210	690	162
5	1371	780	224
5	5557	3085	2461
6	23	15	0
6	42	25	0
6	51	30	0
6	167	95	1
6	179	100	1
6	289	165	1
6	305	175	1
6	324	185	1
6	333	190	1
6	394	225	1
6	403	230	1
6	461	260	1
6	577	330	1
6	927	525	1
6	978	555	1
6	1091	620	1
6	1140	650	1
6	1192	680	1
6	1210	690	1
6	1371	780	1
6	5557	3085	1
7	37	24	1
7	46	28	1
7	56	32	1
7	63	36	1
7	67	40	1
7	74	44	1
7	83	48	1
7	91	52	1
7	100	56	1
7	104	60	1
7	110	64	1
7	117	68	1
7	124	72	1
7	132	76	1
7	136	80	1
7	162	92	1
7	171	96	1
7	175	100	1
7	184	104	1
7	191	108	1
7	198	112	1
7	205	116	1
7	209	120	1
7	216	124	1
7	226	128	1
7	233	132	1
7	240	136	1
7	244	140	1
7	250	144	1
7	259	148	1
7	266	152	1
7	273	156	1
7	277	160	1
7	284	164	1
7	292	168	1
7	300	172	1
7	308	176	1
7	312	180	1
7	319	184	1
7	328	188	1
7	337	192	1
7	347	196	1
7	351	200	1
7	357	204	1
7	364	208	1
7	371	212	1
7	378	216	1
7	382	220	1
7	389	224	1
7	398	228	1
7	408	232	1
7	416	236	1
7	420	240	1
7	453	256	1
7	457	260	1
7	466	264	1
7	473	268	1
7	480	272	1
7	490	276	1
7	494	280	1
7	500	284	1
7	507	288	1
7	514	292	1
7	521	296	1
7	525	300	1
7	531	304	1
7	538	308	1
7	545	312	1
7	552	316	1
7	556	320	1
7	563	324	1
7	582	332	1
7	589	336	1
7	593	340	1
7	599	344	1
7	606	348	1
7	614	352	1
7	627	360	1
7	644	368	1
7	666	380	1
7	705	400	1
7	722	408	1
7	729	412	1
7	737	416	1
7	741	420	1
7	780	440	1
7	795	448	1
7	811	456	1
7	815	460	1
7	840	472	1
7	847	476	1
7	851	480	1
7	857	484	1
7	864	488	1
7	873	492	1
7	880	496	1
7	884	500	1
7	890	504	1
7	897	508	1
7	904	512	1
7	911	516	1
7	915	520	1
7	922	524	1
7	930	528	1
7	938	532	1
7	952	540	1
7	958	544	1
7	965	548	1
7	973	552	1
7	983	556	1
7	987	560	1
7	993	564	1
7	1000	568	1
7	1007	572	1
7	1015	576	1
7	1019	580	1
7	1035	588	1
7	1042	592	1
7	1049	596	1
7	1053	600	1
7	1059	604	1
7	1066	608	1
7	1074	612	1
7	1087	620	1
7	1096	624	1
7	1103	628	1
7	1110	632	1
7	1117	636	1
7	1121	640	1
7	1127	644	1
7	1135	648	1
7	1145	652	1
7	1152	656	1
7	1156	660	1
7	1162	664	1
7	1169	668	1
7	1176	672	1
7	1184	676	1
7	1188	680	1
7	1196	684	1
7	1215	692	1
7	1222	696	1
7	1226	700	1
7	1232	704	1
7	1239	708	1
7	1248	712	1
7	1255	716	1
7	1259	720	1
7	1265	724	1
7	1273	728	1
7	1295	740	1
7	1328	756	1
7	1332	760	1
7	1348	768	1
7	1355	772	1
7	1363	776	1
7	1367	780	1
7	1376	784	1
7	1383	788	1
7	1390	792	1
7	1398	796	1
7	1402	800	1
7	1427	812	1
7	1434	816	1
7	1438	820	1
7	1444	824	1
7	1451	828	1
7	1458	832	1
7	1467	836	1
7	1471	840	1
7	1477	844	1
7	1484	848	1
7	1491	852	1
7	1498	856	1
7	1502	860	1
7	1508	864	1
7	1515	868	1
7	1524	872	1
7	1531	876	1
7	1535	880	1
7	1541	884	1
7	1548	888	1
7	1556	892	1
7	1569	900	1
7	1583	908	1
7	1591	912	1
7	1604	920	1
7	1619	928	1
7	1641	940	1
7	1680	960	1
7	1718	980	1
7	1725	984	1
7	1742	992	1
7	1749	996	1
7	1753	1000	1
7	1760	1004	1
7	1791	1020	1
7	1830	1040	1
7	1845	1048	1
7	1867	1060	1
7	1891	1072	1
7	1904	1080	1
7	1937	1096	1
7	1941	1100	1
7	1965	1112	1
7	1978	1120	1
7	2017	1140	1
7	2056	1160	1
7	2079	1172	1
7	2087	1176	1
7	2091	1180	1
7	2107	1188	1
7	2114	1192	1
7	2121	1196	1
7	2125	1200	1
7	2132	1204	1
7	2163	1220	1
7	2187	1232	1
7	2200	1240	1
7	2233	1256	1
7	2237	1260	1
7	2276	1280	1
7	2309	1296	1
7	2313	1300	1
7	2352	1320	1
7	2384	1336	1
7	2388	1340	1
7	2395	1344	1
7	2426	1360	1
7	2442	1368	1
7	2449	1372	1
7	2456	1376	1
7	2460	1380	1
7	2467	1384	1
7	2483	1392	1
7	2496	1400	1
7	2529	1416	1
7	2533	1420	1
7	2569	1436	1
7	2573	1440	1
7	2579	1444	1
7	2586	1448	1
7	2593	1452	1
7	2600	1456	1
7	2604	1460	1
7	2610	1464	1
7	2618	1468	1
7	2635	1476	1
7	2639	1480	1
7	2645	1484	1
7	2652	1488	1
7	2659	1492	1
7	2667	1496	1
7	2671	1500	1
7	2704	1516	1
7	2708	1520	1
7	2733	1532	1
7	2740	1536	1
7	2744	1540	1
7	2750	1544	1
7	2757	1548	1
7	2765	1552	1
7	2778	1560	1
7	2796	1568	1
7	2803	1572	1
7	2810	1576	1
7	2814	1580	1
7	2821	1584	1
7	2852	1600	1
7	2861	1604	1
7	2868	1608	1
7	2875	1612	1
7	2882	1616	1
7	2886	1620	1
7	2893	1624	1
7	2903	1628	1
7	2911	1632	1
7	2924	1640	1
7	2964	1660	1
7	2970	1664	1
7	2977	1668	1
7	2984	1672	1
7	2991	1676	1
7	2995	1680	1
7	3002	1684	1
7	3019	1692	1
7	3026	1696	1
7	3030	1700	1
7	3036	1704	1
7	3044	1708	1
7	3066	1720	1
7	3080	1728	1
7	3088	1732	1
7	3102	1740	1
7	3108	1744	1
7	3115	1748	1
7	3123	1752	1
7	3136	1760	1
7	3160	1772	1
7	3173	1780	1
7	3188	1788	1
7	3210	1800	1
7	3249	1820	1
7	3274	1832	1
7	3281	1836	1
7	3285	1840	1
7	3291	1844	1
7	3298	1848	1
7	3306	1852	1
7	3315	1856	1
7	3319	1860	1
7	3328	1864	1
7	3335	1868	1
7	3342	1872	1
7	3350	1876	1
7	3354	1880	1
7	3369	1888	1
7	3386	1896	1
7	3390	1900	1
7	3396	1904	1
7	3403	1908	1
7	3410	1912	1
7	3419	1916	1
7	3423	1920	1
7	3429	1924	1
7	3436	1928	1
7	3443	1932	1
7	3451	1936	1
7	3455	1940	1
7	3463	1944	1
7	3472	1948	1
7	3481	1952	1
7	3494	1960	1
7	3502	1964	1
7	3519	1972	1
7	3526	1976	1
7	3530	1980	1
7	3537	1984	1
7	3546	1988	1
7	3556	1992	1
7	3563	1996	1
7	3567	2000	1
7	3573	2004	1
7	3580	2008	1
7	3588	2012	1
7	3598	2016	1
7	3602	2020	1
7	3608	2024	1
7	3615	2028	1
7	3622	2032	1
7	3630	2036	1
7	3634	2040	1
7	3642	2044	1
7	3650	2048	1
7	3658	2052	1
7	3666	2056	1
7	3670	2060	1
7	3677	2064	1
7	3686	2068	1
7	3695	2072	1
7	3704	2076	1
7	3708	2080	1
7	3715	2084	1
7	3723	2088	1
7	3732	2092	1
7	3741	2096	1
7	3745	2100	1
7	3754	2104	1
7	3761	2108	1
7	3768	2112	1
7	3776	2116	1
7	3780	2120	1
7	3788	2124	1
7	3796	2128	1
7	3804	2132	1
7	3813	2136	1
7	3817	2140	1
7	3825	2144	1
7	3834	2148	1
7	3843	2152	1
7	3852	2156	1
7	3856	2160	1
7	3863	2164	1
7	3871	2168	1
7	3880	2172	1
7	3889	2176	1
7	3893	2180	1
7	3901	2184	1
7	3910	2188	1
7	3918	2192	1
7	3926	2196	1
7	3930	2200	1
7	3938	2204	1
7	3947	2208	1
7	3955	2212	1
7	3963	2216	1
7	3967	2220	1
7	3975	2224	1
7	3984	2228	1
7	3994	2232	1
7	4001	2236	1
7	4005	2240	1
7	4011	2244	1
7	4019	2248	1
7	4028	2252	1
7	4037	2256	1
7	4041	2260	1
7	4049	2264	1
7	4058	2268	1
7	4067	2272	1
7	4076	2276	1
7	4080	2280	1
7	4088	2284	1
7	4097	2288	1
7	4106	2292	1
7	4114	2296	1
7	4118	2300	1
7	4125	2304	1
7	4134	2308	1
7	4143	2312	1
7	4152	2316	1
7	4156	2320	1
7	4164	2324	1
7	4172	2328	1
7	4180	2332	1
7	4189	2336	1
7	4193	2340	1
7	4201	2344	1
7	4209	2348	1
7	4216	2352	1
7	4224	2356	1
7	4228	2360	1
7	4236	2364	1
7	4245	2368	1
7	4254	2372	1
7	4263	2376	1
7	4267	2380	1
7	4274	2384	1
7	4282	2388	1
7	4291	2392	1
7	4300	2396	1
7	4304	2400	1
7	4312	2404	1
7	4321	2408	1
7	4330	2412	1
7	4339	2416	1
7	4343	2420	1
7	4351	2424	1
7	4359	2428	1
7	4366	2432	1
7	4373	2436	1
7	4377	2440	1
7	4384	2444	1
7	4393	2448	1
7	4402	2452	1
7	4411	2456	1
7	4415	2460	1
7	4424	2464	1
7	4431	2468	1
7	4438	2472	1
7	4445	2476	1
7	4449	2480	1
7	4455	2484	1
7	4462	2488	1
7	4469	2492	1
7	4477	2496	1
7	4481	2500	1
7	4489	2504	1
7	4497	2508	1
7	4505	2512	1
7	4514	2516	1
7	4518	2520	1
7	4526	2524	1
7	4535	2528	1
7	4544	2532	1
7	4552	2536	1
7	4556	2540	1
7	4563	2544	1
7	4571	2548	1
7	4579	2552	1
7	4587	2556	1
7	4591	2560	1
7	4598	2564	1
7	4606	2568	1
7	4614	2572	1
7	4623	2576	1
7	4627	2580	1
7	4635	2584	1
7	4643	2588	1
7	4651	2592	1
7	4660	2596	1
7	4664	2600	1
7	4672	2604	1
7	4681	2608	1
7	4690	2612	1
7	4699	2616	1
7	4703	2620	1
7	4711	2624	1
7	4719	2628	1
7	4727	2632	1
7	4736	2636	1
7	4740	2640	1
7	4748	2644	1
7	4757	2648	1
7	4766	2652	1
7	4775	2656	1
7	4779	2660	1
7	4787	2664	1
7	4797	2668	1
7	4804	2672	1
7	4811	2676	1
7	4815	2680	1
7	4821	2684	1
7	4828	2688	1
7	4835	2692	1
7	4843	2696	1
7	4847	2700	1
7	4854	2704	1
7	4862	2708	1
7	4871	2712	1
7	4879	2716	1
7	4883	2720	1
7	4890	2724	1
7	4898	2728	1
7	4906	2732	1
7	4915	2736	1
7	4919	2740	1
7	4927	2744	1
7	4936	2748	1
7	4945	2752	1
7	4954	2756	1
7	4958	2760	1
7	4965	2764	1
7	4973	2768	1
7	4982	2772	1
7	4991	2776	1
7	4995	2780	1
7	5003	2784	1
7	5012	2788	1
7	5021	2792	1
7	5029	2796	1
7	5033	2800	1
7	5040	2804	1
7	5049	2808	1
7	5057	2812	1
7	5064	2816	1
7	5068	2820	1
7	5075	2824	1
7	5083	2828	1
7	5091	2832	1
7	5099	2836	1
7	5103	2840	1
7	5110	2844	1
7	5119	2848	1
7	5128	2852	1
7	5137	2856	1
7	5141	2860	1
7	5150	2864	1
7	5157	2868	1
7	5164	2872	1
7	5172	2876	1
7	5176	2880	1
7	5183	2884	1
7	5191	2888	1
7	5200	2892	1
7	5209	2896	1
7	5213	2900	1
7	5221	2904	1
7	5230	2908	1
7	5238	2912	1
7	5245	2916	1
7	5249	2920	1
7	5256	2924	1
7	5265	2928	1
7	5274	2932	1
7	5283	2936	1
7	5287	2940	1
7	5294	2944	1
7	5302	2948	1
7	5310	2952	1
7	5318	2956	1
7	5322	2960	1
7	5330	2964	1
7	5339	2968	1
7	5348	2972	1
7	5357	2976	1
7	5361	2980	1
7	5368	2984	1
7	5376	2988	1
7	5385	2992	1
7	5394	2996	1
7	5398	3000	1
7	5405	3004	1
7	5413	3008	1
7	5422	3012	1
7	5430	3016	1
7	5434	3020	1
7	5440	3024	1
7	5447	3028	1
7	5455	3032	1
7	5464	3036	1
7	5468	3040	1
7	5476	3044	1
7	5485	3048	1
7	5494	3052	1
7	5503	3056	1
7	5507	3060	1
7	5514	3064	1
7	5522	3068	1
7	5531	3072	1
7	5540	3076	1
7	5544	3080	1
7	5552	3084	1
7	5562	3088	1
7	5569	3092	1
7	5576	3096	1
7	5580	3100	1
7	5588	3104	1
7	5595	3108	1
7	5602	3112	1
7	5609	3116	1
7	5613	3120	1
7	5619	3124	1
7	5627	3128	1
7	5637	3132	1
7	5644	3136	1
7	5648	3140	1
7	5654	3144	1
7	5661	3148	1
7	5669	3152	1
7	5678	3156	1
7	5682	3160	1
7	5690	3164	1
7	5699	3168	1
7	5708	3172	1
7	5718	3176	1
7	5722	3180	1
7	5728	3184	1
7	5735	3188	1
7	5742	3192	1
7	5749	3196	1
7	5753	3200	1
7	5759	3204	1
7	5767	3208	1
7	5776	3212	1
7	5784	3216	1
7	5788	3220	1
7	5795	3224	1
7	5804	3228	1
7	5813	3232	1
7	5822	3236	1
7	5826	3240	1
7	5834	3244	1
7	5843	3248	1
7	5852	3252	1
7	5861	3256	1
7	5865	3260	1
7	5873	3264	1
7	5882	3268	1
7	5891	3272	1
7	5899	3276	1
7	5903	3280	1
7	5910	3284	1
7	5918	3288	1
7	5926	3292	1
7	5935	3296	1
7	5939	3300	1
7	5947	3304	1
7	5955	3308	1
7	5963	3312	1
7	5972	3316	1
7	5976	3320	1
7	5985	3324	1
7	5992	3328	1
7	5999	3332	1
7	6006	3336	1
7	6010	3340	1
7	6017	3344	1
7	6026	3348	1
7	6035	3352	1
7	6043	3356	1
7	6047	3360	1
7	6053	3364	1
7	6061	3368	1
7	6070	3372	1
7	6079	3376	1
7	6083	3380	1
7	6090	3384	1
7	6097	3388	1
7	6105	3392	1
7	6114	3396	1
7	6118	3400	1
7	6126	3404	1
7	6135	3408	1
7	6143	3412	1
7	6151	3416	1
7	6155	3420	1
7	6163	3424	1
7	6173	3428	1
7	6180	3432	1
7	6187	3436	1
7	6191	3440	1
7	6197	3444	1
7	6205	3448	1
7	6214	3452	1
7	6222	3456	1
7	6226	3460	1
7	6233	3464	1
7	6242	3468	1
7	6251	3472	1
7	6259	3476	1
7	6263	3480	1
7	6270	3484	1
7	6279	3488	1
7	6288	3492	1
7	6297	3496	1
7	6301	3500	1
7	6309	3504	1
7	6318	3508	1
7	6326	3512	1
7	6334	3516	1
7	6338	3520	1
7	6346	3524	1
7	6354	3528	1
7	6362	3532	1
7	6371	3536	1
7	6375	3540	1
7	6383	3544	1
7	6392	3548	1
7	6400	3552	1
7	6408	3556	1
7	6412	3560	1
7	6420	3564	1
7	6429	3568	1
7	6438	3572	1
7	6447	3576	1
7	6451	3580	1
7	6459	3584	1
7	6468	3588	1
7	6476	3592	1
7	6484	3596	1
7	6488	3600	1
8	39	24	1
8	48	28	1
8	58	32	1
8	65	36	1
8	69	40	1
8	76	44	1
8	102	56	1
8	106	60	1
8	112	64	1
8	119	68	1
8	126	72	1
8	134	76	1
8	138	80	1
8	146	84	1
8	156	88	1
8	164	92	1
8	173	96	1
8	177	100	1
8	186	104	1
8	193	108	1
8	200	112	1
8	207	116	1
8	211	120	1
8	218	124	1
8	235	132	1
8	242	136	1
8	246	140	1
8	252	144	1
8	261	148	1
8	268	152	1
8	275	156	1
8	279	160	1
8	286	164	1
8	294	168	1
8	302	172	1
8	310	176	1
8	314	180	1
8	321	184	1
8	330	188	1
8	339	192	1
8	353	200	1
8	359	204	1
8	366	208	1
8	373	212	1
8	380	216	1
8	384	220	1
8	391	224	1
8	400	228	1
8	410	232	1
8	418	236	1
8	422	240	1
8	430	244	1
8	439	248	1
8	447	252	1
8	455	256	1
8	459	260	1
8	468	264	1
8	475	268	1
8	482	272	1
8	492	276	1
8	496	280	1
8	502	284	1
8	509	288	1
8	516	292	1
8	523	296	1
8	527	300	1
8	533	304	1
8	540	308	1
8	547	312	1
8	554	316	1
8	558	320	1
8	565	324	1
8	574	328	1
8	584	332	1
8	591	336	1
8	595	340	1
8	601	344	1
8	608	348	1
8	616	352	1
8	625	356	1
8	629	360	1
8	638	364	1
8	646	368	1
8	655	372	1
8	664	376	1
8	668	380	1
8	676	384	1
8	685	388	1
8	694	392	1
8	703	396	1
8	707	400	1
8	717	404	1
8	724	408	1
8	731	412	1
8	739	416	1
8	743	420	1
8	751	424	1
8	760	428	1
8	769	432	1
8	778	436	1
8	782	440	1
8	789	444	1
8	797	448	1
8	805	452	1
8	813	456	1
8	817	460	1
8	825	464	1
8	835	468	1
8	842	472	1
8	849	476	1
8	853	480	1
8	859	484	1
8	866	488	1
8	875	492	1
8	882	496	1
8	886	500	1
8	892	504	1
8	899	508	1
8	906	512	1
8	913	516	1
8	917	520	1
8	924	524	1
8	932	528	1
8	940	532	1
8	950	536	1
8	954	540	1
8	960	544	1
8	967	548	1
8	975	552	1
8	985	556	1
8	989	560	1
8	995	564	1
8	1002	568	1
8	1009	572	1
8	1017	576	1
8	1021	580	1
8	1030	584	1
8	1037	588	1
8	1044	592	1
8	1051	596	1
8	1055	600	1
8	1061	604	1
8	1068	608	1
8	1076	612	1
8	1085	616	1
8	1089	620	1
8	1098	624	1
8	1105	628	1
8	1112	632	1
8	1119	636	1
8	1123	640	1
8	1129	644	1
8	1137	648	1
8	1147	652	1
8	1154	656	1
8	1158	660	1
8	1164	664	1
8	1171	668	1
8	1178	672	1
8	1186	676	1
8	1190	680	1
8	1198	684	1
8	1207	688	1
8	1217	692	1
8	1224	696	1
8	1228	700	1
8	1234	704	1
8	1241	708	1
8	1250	712	1
8	1257	716	1
8	1261	720	1
8	1267	724	1
8	1275	728	1
8	1284	732	1
8	1293	736	1
8	1297	740	1
8	1305	744	1
8	1314	748	1
8	1322	752	1
8	1330	756	1
8	1334	760	1
8	1343	764	1
8	1350	768	1
8	1357	772	1
8	1365	776	1
8	1369	780	1
8	1378	784	1
8	1385	788	1
8	1392	792	1
8	1400	796	1
8	1404	800	1
8	1412	804	1
8	1422	808	1
8	1429	812	1
8	1436	816	1
8	1440	820	1
8	1446	824	1
8	1453	828	1
8	1460	832	1
8	1469	836	1
8	1473	840	1
8	1479	844	1
8	1486	848	1
8	1493	852	1
8	1500	856	1
8	1504	860	1
8	1510	864	1
8	1517	868	1
8	1526	872	1
8	1533	876	1
8	1537	880	1
8	1543	884	1
8	1550	888	1
8	1558	892	1
8	1567	896	1
8	1571	900	1
8	1578	904	1
8	1585	908	1
8	1593	912	1
8	1602	916	1
8	1606	920	1
8	1613	924	1
8	1621	928	1
8	1630	932	1
8	1639	936	1
8	1643	940	1
8	1651	944	1
8	1660	948	1
8	1669	952	1
8	1678	956	1
8	1682	960	1
8	1690	964	1
8	1699	968	1
8	1708	972	1
8	1716	976	1
8	1720	980	1
8	1727	984	1
8	1737	988	1
8	1744	992	1
8	1751	996	1
8	1755	1000	1
8	1762	1004	1
8	1771	1008	1
8	1780	1012	1
8	1789	1016	1
8	1793	1020	1
8	1801	1024	1
8	1810	1028	1
8	1819	1032	1
8	1828	1036	1
8	1832	1040	1
8	1839	1044	1
8	1847	1048	1
8	1856	1052	1
8	1865	1056	1
8	1869	1060	1
8	1877	1064	1
8	1885	1068	1
8	1893	1072	1
8	1902	1076	1
8	1906	1080	1
8	1914	1084	1
8	1923	1088	1
8	1931	1092	1
8	1939	1096	1
8	1943	1100	1
8	1951	1104	1
8	1959	1108	1
8	1967	1112	1
8	1976	1116	1
8	1980	1120	1
8	1988	1124	1
8	1997	1128	1
8	2006	1132	1
8	2015	1136	1
8	2019	1140	1
8	2027	1144	1
8	2036	1148	1
8	2045	1152	1
8	2054	1156	1
8	2058	1160	1
8	2066	1164	1
8	2074	1168	1
8	2081	1172	1
8	2089	1176	1
8	2093	1180	1
8	2102	1184	1
8	2109	1188	1
8	2116	1192	1
8	2123	1196	1
8	2127	1200	1
8	2134	1204	1
8	2143	1208	1
8	2152	1212	1
8	2161	1216	1
8	2165	1220	1
8	2173	1224	1
8	2181	1228	1
8	2189	1232	1
8	2198	1236	1
8	2202	1240	1
8	2210	1244	1
8	2219	1248	1
8	2227	1252	1
8	2235	1256	1
8	2239	1260	1
8	2247	1264	1
8	2256	1268	1
8	2265	1272	1
8	2274	1276	1
8	2278	1280	1
8	2286	1284	1
8	2295	1288	1
8	2303	1292	1
8	2311	1296	1
8	2315	1300	1
8	2323	1304	1
8	2332	1308	1
8	2341	1312	1
8	2350	1316	1
8	2354	1320	1
8	2362	1324	1
8	2371	1328	1
8	2379	1332	1
8	2386	1336	1
8	2390	1340	1
8	2397	1344	1
8	2406	1348	1
8	2415	1352	1
8	2424	1356	1
8	2428	1360	1
8	2435	1364	1
8	2444	1368	1
8	2451	1372	1
8	2458	1376	1
8	2462	1380	1
8	2469	1384	1
8	2477	1388	1
8	2485	1392	1
8	2494	1396	1
8	2498	1400	1
8	2506	1404	1
8	2515	1408	1
8	2523	1412	1
8	2531	1416	1
8	2535	1420	1
8	2543	1424	1
8	2552	1428	1
8	2561	1432	1
8	2575	1440	1
8	2581	1444	1
8	2588	1448	1
8	2595	1452	1
8	2602	1456	1
8	2606	1460	1
8	2612	1464	1
8	2620	1468	1
8	2628	1472	1
8	2637	1476	1
8	2641	1480	1
8	2647	1484	1
8	2654	1488	1
8	2661	1492	1
8	2669	1496	1
8	2673	1500	1
8	2681	1504	1
8	2690	1508	1
8	2698	1512	1
8	2706	1516	1
8	2710	1520	1
8	2718	1524	1
8	2728	1528	1
8	2735	1532	1
8	2742	1536	1
8	2746	1540	1
8	2752	1544	1
8	2759	1548	1
8	2767	1552	1
8	2776	1556	1
8	2780	1560	1
8	2788	1564	1
8	2805	1572	1
8	2812	1576	1
8	2816	1580	1
8	2823	1584	1
8	2832	1588	1
8	2841	1592	1
8	2850	1596	1
8	2854	1600	1
8	2870	1608	1
8	2877	1612	1
8	2884	1616	1
8	2888	1620	1
8	2895	1624	1
8	2913	1632	1
8	2922	1636	1
8	2926	1640	1
8	2934	1644	1
8	2943	1648	1
8	2952	1652	1
8	2962	1656	1
8	2966	1660	1
8	2972	1664	1
8	2979	1668	1
8	2986	1672	1
8	2993	1676	1
8	2997	1680	1
8	3004	1684	1
8	3014	1688	1
8	3021	1692	1
8	3028	1696	1
8	3032	1700	1
8	3038	1704	1
8	3046	1708	1
8	3055	1712	1
8	3064	1716	1
8	3068	1720	1
8	3075	1724	1
8	3082	1728	1
8	3090	1732	1
8	3100	1736	1
8	3104	1740	1
8	3110	1744	1
8	3117	1748	1
8	3125	1752	1
8	3134	1756	1
8	3138	1760	1
8	3146	1764	1
8	3154	1768	1
8	3162	1772	1
8	3171	1776	1
8	3175	1780	1
8	3182	1784	1
8	3190	1788	1
8	3199	1792	1
8	3208	1796	1
8	3212	1800	1
8	3220	1804	1
8	3229	1808	1
8	3238	1812	1
8	3247	1816	1
8	3251	1820	1
8	3259	1824	1
8	3267	1828	1
8	3276	1832	1
8	3283	1836	1
8	3287	1840	1
8	3293	1844	1
8	3300	1848	1
8	3308	1852	1
8	3321	1860	1
8	3337	1868	1
8	3344	1872	1
8	3352	1876	1
8	3356	1880	1
8	3363	1884	1
8	3371	1888	1
8	3381	1892	1
8	3388	1896	1
8	3392	1900	1
8	3398	1904	1
8	3405	1908	1
8	3412	1912	1
8	3421	1916	1
8	3425	1920	1
8	3431	1924	1
8	3438	1928	1
8	3445	1932	1
8	3453	1936	1
8	3457	1940	1
8	3492	1956	1
8	3496	1960	1
8	3514	1968	1
8	3521	1972	1
8	3528	1976	1
8	3532	1980	1
8	3539	1984	1
8	3565	1996	1
8	3569	2000	1
8	3575	2004	1
8	3582	2008	1
8	3590	2012	1
8	3604	2020	1
8	3610	2024	1
8	3617	2028	1
8	3624	2032	1
8	3632	2036	1
8	3636	2040	1
8	3660	2052	1
8	3672	2060	1
8	3679	2064	1
8	3710	2080	1
8	3725	2088	1
8	3747	2100	1
8	3763	2108	1
8	3770	2112	1
8	3778	2116	1
8	3782	2120	1
8	3806	2132	1
8	3819	2140	1
8	3858	2160	1
8	3873	2168	1
8	3895	2180	1
8	3928	2196	1
8	3932	2200	1
8	3965	2216	1
8	3969	2220	1
8	4003	2236	1
8	4007	2240	1
8	4013	2244	1
8	4021	2248	1
8	4043	2260	1
8	4082	2280	1
8	4120	2300	1
8	4127	2304	1
8	4158	2320	1
8	4182	2332	1
8	4195	2340	1
8	4218	2352	1
8	4226	2356	1
8	4230	2360	1
8	4269	2380	1
8	4284	2388	1
8	4306	2400	1
8	4345	2420	1
8	4368	2432	1
8	4375	2436	1
8	4379	2440	1
8	4386	2444	1
8	4417	2460	1
8	4433	2468	1
8	4440	2472	1
8	4447	2476	1
8	4451	2480	1
8	4457	2484	1
8	4464	2488	1
8	4471	2492	1
8	4479	2496	1
8	4483	2500	1
8	4507	2512	1
8	4520	2520	1
8	4558	2540	1
8	4565	2544	1
8	4581	2552	1
8	4593	2560	1
8	4600	2564	1
8	4616	2572	1
8	4629	2580	1
8	4653	2592	1
8	4666	2600	1
8	4705	2620	1
8	4729	2632	1
8	4742	2640	1
8	4781	2660	1
8	4806	2672	1
8	4813	2676	1
8	4817	2680	1
8	4823	2684	1
8	4830	2688	1
8	4837	2692	1
8	4845	2696	1
8	4849	2700	1
8	4864	2708	1
8	4885	2720	1
8	4892	2724	1
8	4908	2732	1
8	4921	2740	1
8	4960	2760	1
8	4975	2768	1
8	4997	2780	1
8	5035	2800	1
8	5042	2804	1
8	5066	2816	1
8	5070	2820	1
8	5077	2824	1
8	5093	2832	1
8	5105	2840	1
8	5112	2844	1
8	5143	2860	1
8	5159	2868	1
8	5166	2872	1
8	5174	2876	1
8	5178	2880	1
8	5193	2888	1
8	5215	2900	1
8	5247	2916	1
8	5251	2920	1
8	5258	2924	1
8	5289	2940	1
8	5304	2948	1
8	5320	2956	1
8	5324	2960	1
8	5363	2980	1
8	5378	2988	1
8	5400	3000	1
8	5415	3008	1
8	5436	3020	1
8	5442	3024	1
8	5449	3028	1
8	5457	3032	1
8	5470	3040	1
8	5509	3060	1
8	5524	3068	1
8	5546	3080	1
8	5564	3088	1
8	5571	3092	1
8	5578	3096	1
8	5582	3100	1
8	5590	3104	1
8	5597	3108	1
8	5604	3112	1
8	5611	3116	1
8	5615	3120	1
8	5621	3124	1
8	5629	3128	1
8	5646	3136	1
8	5650	3140	1
8	5656	3144	1
8	5663	3148	1
8	5671	3152	1
8	5684	3160	1
8	5724	3180	1
8	5730	3184	1
8	5737	3188	1
8	5744	3192	1
8	5751	3196	1
8	5755	3200	1
8	5761	3204	1
8	5769	3208	1
8	5790	3220	1
8	5797	3224	1
8	5828	3240	1
8	5867	3260	1
8	5905	3280	1
8	5912	3284	1
8	5928	3292	1
8	5941	3300	1
8	5965	3312	1
8	5978	3320	1
8	5994	3328	1
8	6001	3332	1
8	6008	3336	1
8	6012	3340	1
8	6019	3344	1
8	6049	3360	1
8	6055	3364	1
8	6063	3368	1
8	6085	3380	1
8	6099	3388	1
8	6107	3392	1
8	6120	3400	1
8	6153	3416	1
8	6157	3420	1
8	6182	3432	1
8	6189	3436	1
8	6193	3440	1
8	6199	3444	1
8	6207	3448	1
8	6228	3460	1
8	6235	3464	1
8	6265	3480	1
8	6272	3484	1
8	6303	3500	1
8	6336	3516	1
8	6340	3520	1
8	6364	3532	1
8	6377	3540	1
8	6410	3556	1
8	6414	3560	1
8	6453	3580	1
8	6486	3596	1
8	6490	3600	1
9	64	36	1
9	68	40	1
9	75	44	1
9	84	48	1
9	92	52	1
9	101	56	1
9	105	60	1
9	111	64	1
9	118	68	1
9	125	72	1
9	133	76	1
9	137	80	1
9	145	84	1
9	155	88	1
9	163	92	1
9	176	100	1
9	192	108	1
9	199	112	1
9	206	116	1
9	210	120	1
9	217	124	1
9	227	128	1
9	234	132	1
9	241	136	1
9	245	140	1
9	251	144	1
9	260	148	1
9	267	152	1
9	274	156	1
9	278	160	1
9	285	164	1
9	301	172	1
9	313	180	1
9	320	184	1
9	348	196	1
9	352	200	1
9	358	204	1
9	365	208	1
9	372	212	1
9	379	216	1
9	383	220	1
9	390	224	1
9	417	236	1
9	421	240	1
9	429	244	1
9	438	248	1
9	446	252	1
9	454	256	1
9	458	260	1
9	474	268	1
9	481	272	1
9	491	276	1
9	495	280	1
9	501	284	1
9	508	288	1
9	515	292	1
9	522	296	1
9	526	300	1
9	532	304	1
9	539	308	1
9	546	312	1
9	553	316	1
9	557	320	1
9	564	324	1
9	573	328	1
9	590	336	1
9	594	340	1
9	600	344	1
9	607	348	1
9	615	352	1
9	624	356	1
9	628	360	1
9	637	364	1
9	645	368	1
9	654	372	1
9	663	376	1
9	667	380	1
9	675	384	1
9	684	388	1
9	693	392	1
9	702	396	1
9	706	400	1
9	716	404	1
9	723	408	1
9	730	412	1
9	738	416	1
9	742	420	1
9	750	424	1
9	759	428	1
9	768	432	1
9	777	436	1
9	781	440	1
9	788	444	1
9	796	448	1
9	804	452	1
9	812	456	1
9	816	460	1
9	824	464	1
9	834	468	1
9	841	472	1
9	848	476	1
9	852	480	1
9	858	484	1
9	865	488	1
9	874	492	1
9	881	496	1
9	885	500	1
9	891	504	1
9	898	508	1
9	905	512	1
9	912	516	1
9	916	520	1
9	923	524	1
9	939	532	1
9	949	536	1
9	953	540	1
9	959	544	1
9	966	548	1
9	974	552	1
9	988	560	1
9	994	564	1
9	1001	568	1
9	1008	572	1
9	1016	576	1
9	1020	580	1
9	1029	584	1
9	1036	588	1
9	1043	592	1
9	1050	596	1
9	1054	600	1
9	1060	604	1
9	1067	608	1
9	1075	612	1
9	1084	616	1
9	1088	620	1
9	1104	628	1
9	1111	632	1
9	1118	636	1
9	1122	640	1
9	1128	644	1
9	1136	648	1
9	1153	656	1
9	1157	660	1
9	1163	664	1
9	1170	668	1
9	1177	672	1
9	1185	676	1
9	1189	680	1
9	1206	688	1
9	1223	696	1
9	1227	700	1
9	1233	704	1
9	1240	708	1
9	1249	712	1
9	1256	716	1
9	1260	720	1
9	1266	724	1
9	1274	728	1
9	1283	732	1
9	1292	736	1
9	1296	740	1
9	1304	744	1
9	1313	748	1
9	1321	752	1
9	1329	756	1
9	1333	760	1
9	1342	764	1
9	1349	768	1
9	1356	772	1
9	1364	776	1
9	1368	780	1
9	1384	788	1
9	1391	792	1
9	1399	796	1
9	1403	800	1
9	1411	804	1
9	1421	808	1
9	1428	812	1
9	1435	816	1
9	1439	820	1
9	1445	824	1
9	1452	828	1
9	1459	832	1
9	1468	836	1
9	1472	840	1
9	1478	844	1
9	1485	848	1
9	1492	852	1
9	1499	856	1
9	1503	860	1
9	1509	864	1
9	1516	868	1
9	1525	872	1
9	1532	876	1
9	1536	880	1
9	1542	884	1
9	1549	888	1
9	1557	892	1
9	1566	896	1
9	1570	900	1
9	1577	904	1
9	1584	908	1
9	1592	912	1
9	1601	916	1
9	1605	920	1
9	1612	924	1
9	1620	928	1
9	1629	932	1
9	1638	936	1
9	1642	940	1
9	1650	944	1
9	1659	948	1
9	1668	952	1
9	1677	956	1
9	1681	960	1
9	1689	964	1
9	1698	968	1
9	1707	972	1
9	1715	976	1
9	1719	980	1
9	1726	984	1
9	1736	988	1
9	1743	992	1
9	1750	996	1
9	1754	1000	1
9	1761	1004	1
9	1770	1008	1
9	1779	1012	1
9	1788	1016	1
9	1792	1020	1
9	1800	1024	1
9	1809	1028	1
9	1818	1032	1
9	1827	1036	1
9	1831	1040	1
9	1838	1044	1
9	1846	1048	1
9	1855	1052	1
9	1864	1056	1
9	1868	1060	1
9	1876	1064	1
9	1884	1068	1
9	1892	1072	1
9	1901	1076	1
9	1905	1080	1
9	1913	1084	1
9	1922	1088	1
9	1930	1092	1
9	1938	1096	1
9	1942	1100	1
9	1950	1104	1
9	1958	1108	1
9	1966	1112	1
9	1975	1116	1
9	1979	1120	1
9	1987	1124	1
9	1996	1128	1
9	2005	1132	1
9	2014	1136	1
9	2018	1140	1
9	2026	1144	1
9	2035	1148	1
9	2044	1152	1
9	2053	1156	1
9	2057	1160	1
9	2065	1164	1
9	2073	1168	1
9	2080	1172	1
9	2088	1176	1
9	2092	1180	1
9	2101	1184	1
9	2108	1188	1
9	2115	1192	1
9	2122	1196	1
9	2126	1200	1
9	2133	1204	1
9	2142	1208	1
9	2151	1212	1
9	2160	1216	1
9	2164	1220	1
9	2172	1224	1
9	2180	1228	1
9	2188	1232	1
9	2197	1236	1
9	2201	1240	1
9	2209	1244	1
9	2218	1248	1
9	2226	1252	1
9	2234	1256	1
9	2238	1260	1
9	2246	1264	1
9	2255	1268	1
9	2264	1272	1
9	2273	1276	1
9	2277	1280	1
9	2285	1284	1
9	2294	1288	1
9	2302	1292	1
9	2310	1296	1
9	2314	1300	1
9	2322	1304	1
9	2331	1308	1
9	2340	1312	1
9	2349	1316	1
9	2353	1320	1
9	2361	1324	1
9	2370	1328	1
9	2378	1332	1
9	2385	1336	1
9	2389	1340	1
9	2396	1344	1
9	2405	1348	1
9	2414	1352	1
9	2423	1356	1
9	2427	1360	1
9	2434	1364	1
9	2443	1368	1
9	2450	1372	1
9	2457	1376	1
9	2461	1380	1
9	2468	1384	1
9	2476	1388	1
9	2484	1392	1
9	2493	1396	1
9	2497	1400	1
9	2505	1404	1
9	2514	1408	1
9	2522	1412	1
9	2530	1416	1
9	2534	1420	1
9	2542	1424	1
9	2551	1428	1
9	2560	1432	1
9	2570	1436	1
9	2574	1440	1
9	2580	1444	1
9	2587	1448	1
9	2594	1452	1
9	2601	1456	1
9	2605	1460	1
9	2611	1464	1
9	2619	1468	1
9	2627	1472	1
9	2636	1476	1
9	2640	1480	1
9	2646	1484	1
9	2653	1488	1
9	2660	1492	1
9	2668	1496	1
9	2672	1500	1
9	2680	1504	1
9	2689	1508	1
9	2697	1512	1
9	2705	1516	1
9	2709	1520	1
9	2717	1524	1
9	2727	1528	1
9	2734	1532	1
9	2741	1536	1
9	2745	1540	1
9	2751	1544	1
9	2758	1548	1
9	2766	1552	1
9	2775	1556	1
9	2779	1560	1
9	2787	1564	1
9	2797	1568	1
9	2804	1572	1
9	2811	1576	1
9	2815	1580	1
9	2822	1584	1
9	2831	1588	1
9	2840	1592	1
9	2849	1596	1
9	2853	1600	1
9	2862	1604	1
9	2869	1608	1
9	2876	1612	1
9	2883	1616	1
9	2887	1620	1
9	2894	1624	1
9	2904	1628	1
9	2912	1632	1
9	2921	1636	1
9	2925	1640	1
9	2933	1644	1
9	2942	1648	1
9	2951	1652	1
9	2961	1656	1
9	2965	1660	1
9	2971	1664	1
9	2978	1668	1
9	2985	1672	1
9	2992	1676	1
9	2996	1680	1
9	3003	1684	1
9	3013	1688	1
9	3020	1692	1
9	3027	1696	1
9	3031	1700	1
9	3037	1704	1
9	3045	1708	1
9	3054	1712	1
9	3063	1716	1
9	3067	1720	1
9	3074	1724	1
9	3081	1728	1
9	3089	1732	1
9	3099	1736	1
9	3103	1740	1
9	3109	1744	1
9	3116	1748	1
9	3124	1752	1
9	3133	1756	1
9	3137	1760	1
9	3145	1764	1
9	3153	1768	1
9	3161	1772	1
9	3170	1776	1
9	3174	1780	1
9	3181	1784	1
9	3189	1788	1
9	3198	1792	1
9	3207	1796	1
9	3211	1800	1
9	3219	1804	1
9	3228	1808	1
9	3237	1812	1
9	3246	1816	1
9	3250	1820	1
9	3258	1824	1
9	3266	1828	1
9	3275	1832	1
9	3282	1836	1
9	3286	1840	1
9	3292	1844	1
9	3299	1848	1
9	3307	1852	1
9	3316	1856	1
9	3320	1860	1
9	3329	1864	1
9	3336	1868	1
9	3343	1872	1
9	3351	1876	1
9	3355	1880	1
9	3362	1884	1
9	3370	1888	1
9	3380	1892	1
9	3387	1896	1
9	3391	1900	1
9	3397	1904	1
9	3404	1908	1
9	3411	1912	1
9	3420	1916	1
9	3424	1920	1
9	3430	1924	1
9	3437	1928	1
9	3444	1932	1
9	3452	1936	1
9	3456	1940	1
9	3464	1944	1
9	3473	1948	1
9	3482	1952	1
9	3491	1956	1
9	3495	1960	1
9	3503	1964	1
9	3513	1968	1
9	3520	1972	1
9	3527	1976	1
9	3531	1980	1
9	3538	1984	1
9	3547	1988	1
9	3557	1992	1
9	3564	1996	1
9	3568	2000	1
9	3574	2004	1
9	3581	2008	1
9	3589	2012	1
9	3599	2016	1
9	3603	2020	1
9	3609	2024	1
9	3616	2028	1
9	3623	2032	1
9	3631	2036	1
9	3635	2040	1
9	3643	2044	1
9	3651	2048	1
9	3659	2052	1
9	3667	2056	1
9	3671	2060	1
9	3678	2064	1
9	3687	2068	1
9	3696	2072	1
9	3705	2076	1
9	3709	2080	1
9	3716	2084	1
9	3724	2088	1
9	3733	2092	1
9	3742	2096	1
9	3746	2100	1
9	3755	2104	1
9	3762	2108	1
9	3769	2112	1
9	3777	2116	1
9	3781	2120	1
9	3789	2124	1
9	3797	2128	1
9	3805	2132	1
9	3814	2136	1
9	3818	2140	1
9	3826	2144	1
9	3835	2148	1
9	3844	2152	1
9	3853	2156	1
9	3857	2160	1
9	3864	2164	1
9	3872	2168	1
9	3881	2172	1
9	3890	2176	1
9	3894	2180	1
9	3902	2184	1
9	3911	2188	1
9	3919	2192	1
9	3927	2196	1
9	3931	2200	1
9	3939	2204	1
9	3948	2208	1
9	3956	2212	1
9	3964	2216	1
9	3968	2220	1
9	3976	2224	1
9	3985	2228	1
9	3995	2232	1
9	4002	2236	1
9	4006	2240	1
9	4012	2244	1
9	4020	2248	1
9	4029	2252	1
9	4038	2256	1
9	4042	2260	1
9	4050	2264	1
9	4059	2268	1
9	4068	2272	1
9	4077	2276	1
9	4081	2280	1
9	4089	2284	1
9	4098	2288	1
9	4107	2292	1
9	4115	2296	1
9	4119	2300	1
9	4126	2304	1
9	4135	2308	1
9	4144	2312	1
9	4153	2316	1
9	4157	2320	1
9	4165	2324	1
9	4173	2328	1
9	4181	2332	1
9	4190	2336	1
9	4194	2340	1
9	4202	2344	1
9	4210	2348	1
9	4217	2352	1
9	4225	2356	1
9	4229	2360	1
9	4237	2364	1
9	4246	2368	1
9	4255	2372	1
9	4264	2376	1
9	4268	2380	1
9	4275	2384	1
9	4283	2388	1
9	4292	2392	1
9	4301	2396	1
9	4305	2400	1
9	4313	2404	1
9	4322	2408	1
9	4331	2412	1
9	4340	2416	1
9	4344	2420	1
9	4352	2424	1
9	4360	2428	1
9	4367	2432	1
9	4374	2436	1
9	4378	2440	1
9	4385	2444	1
9	4394	2448	1
9	4403	2452	1
9	4412	2456	1
9	4416	2460	1
9	4425	2464	1
9	4432	2468	1
9	4439	2472	1
9	4446	2476	1
9	4450	2480	1
9	4456	2484	1
9	4463	2488	1
9	4470	2492	1
9	4478	2496	1
9	4482	2500	1
9	4490	2504	1
9	4498	2508	1
9	4506	2512	1
9	4515	2516	1
9	4519	2520	1
9	4527	2524	1
9	4536	2528	1
9	4545	2532	1
9	4553	2536	1
9	4557	2540	1
9	4564	2544	1
9	4572	2548	1
9	4580	2552	1
9	4588	2556	1
9	4592	2560	1
9	4599	2564	1
9	4607	2568	1
9	4615	2572	1
9	4624	2576	1
9	4628	2580	1
9	4636	2584	1
9	4644	2588	1
9	4652	2592	1
9	4661	2596	1
9	4665	2600	1
9	4673	2604	1
9	4682	2608	1
9	4691	2612	1
9	4700	2616	1
9	4704	2620	1
9	4712	2624	1
9	4720	2628	1
9	4728	2632	1
9	4737	2636	1
9	4741	2640	1
9	4749	2644	1
9	4758	2648	1
9	4767	2652	1
9	4776	2656	1
9	4780	2660	1
9	4788	2664	1
9	4798	2668	1
9	4805	2672	1
9	4812	2676	1
9	4816	2680	1
9	4822	2684	1
9	4829	2688	1
9	4836	2692	1
9	4844	2696	1
9	4848	2700	1
9	4855	2704	1
9	4863	2708	1
9	4872	2712	1
9	4880	2716	1
9	4884	2720	1
9	4891	2724	1
9	4899	2728	1
9	4907	2732	1
9	4916	2736	1
9	4920	2740	1
9	4928	2744	1
9	4937	2748	1
9	4946	2752	1
9	4955	2756	1
9	4959	2760	1
9	4966	2764	1
9	4974	2768	1
9	4983	2772	1
9	4992	2776	1
9	4996	2780	1
9	5004	2784	1
9	5013	2788	1
9	5022	2792	1
9	5030	2796	1
9	5034	2800	1
9	5041	2804	1
9	5050	2808	1
9	5058	2812	1
9	5065	2816	1
9	5069	2820	1
9	5076	2824	1
9	5084	2828	1
9	5092	2832	1
9	5100	2836	1
9	5104	2840	1
9	5111	2844	1
9	5120	2848	1
9	5129	2852	1
9	5138	2856	1
9	5142	2860	1
9	5151	2864	1
9	5158	2868	1
9	5165	2872	1
9	5173	2876	1
9	5177	2880	1
9	5184	2884	1
9	5192	2888	1
9	5201	2892	1
9	5210	2896	1
9	5214	2900	1
9	5222	2904	1
9	5231	2908	1
9	5239	2912	1
9	5246	2916	1
9	5250	2920	1
9	5257	2924	1
9	5266	2928	1
9	5275	2932	1
9	5284	2936	1
9	5288	2940	1
9	5295	2944	1
9	5303	2948	1
9	5311	2952	1
9	5319	2956	1
9	5323	2960	1
9	5331	2964	1
9	5340	2968	1
9	5349	2972	1
9	5358	2976	1
9	5362	2980	1
9	5369	2984	1
9	5377	2988	1
9	5386	2992	1
9	5395	2996	1
9	5399	3000	1
9	5406	3004	1
9	5414	3008	1
9	5423	3012	1
9	5431	3016	1
9	5435	3020	1
9	5441	3024	1
9	5448	3028	1
9	5456	3032	1
9	5465	3036	1
9	5469	3040	1
9	5477	3044	1
9	5486	3048	1
9	5495	3052	1
9	5504	3056	1
9	5508	3060	1
9	5515	3064	1
9	5523	3068	1
9	5532	3072	1
9	5541	3076	1
9	5545	3080	1
9	5553	3084	1
9	5570	3092	1
9	5577	3096	1
9	5581	3100	1
9	5589	3104	1
9	5596	3108	1
9	5603	3112	1
9	5610	3116	1
9	5614	3120	1
9	5620	3124	1
9	5628	3128	1
9	5638	3132	1
9	5645	3136	1
9	5649	3140	1
9	5655	3144	1
9	5662	3148	1
9	5670	3152	1
9	5679	3156	1
9	5683	3160	1
9	5691	3164	1
9	5700	3168	1
9	5709	3172	1
9	5719	3176	1
9	5723	3180	1
9	5729	3184	1
9	5736	3188	1
9	5743	3192	1
9	5750	3196	1
9	5754	3200	1
9	5760	3204	1
9	5768	3208	1
9	5777	3212	1
9	5785	3216	1
9	5789	3220	1
9	5796	3224	1
9	5805	3228	1
9	5814	3232	1
9	5823	3236	1
9	5827	3240	1
9	5835	3244	1
9	5844	3248	1
9	5853	3252	1
9	5862	3256	1
9	5866	3260	1
9	5874	3264	1
9	5883	3268	1
9	5892	3272	1
9	5900	3276	1
9	5904	3280	1
9	5911	3284	1
9	5919	3288	1
9	5927	3292	1
9	5936	3296	1
9	5940	3300	1
9	5948	3304	1
9	5956	3308	1
9	5964	3312	1
9	5973	3316	1
9	5977	3320	1
9	5986	3324	1
9	5993	3328	1
9	6000	3332	1
9	6007	3336	1
9	6011	3340	1
9	6018	3344	1
9	6027	3348	1
9	6036	3352	1
9	6044	3356	1
9	6048	3360	1
9	6054	3364	1
9	6062	3368	1
9	6071	3372	1
9	6080	3376	1
9	6084	3380	1
9	6091	3384	1
9	6098	3388	1
9	6106	3392	1
9	6115	3396	1
9	6119	3400	1
9	6127	3404	1
9	6136	3408	1
9	6144	3412	1
9	6152	3416	1
9	6156	3420	1
9	6164	3424	1
9	6174	3428	1
9	6181	3432	1
9	6188	3436	1
9	6192	3440	1
9	6198	3444	1
9	6206	3448	1
9	6215	3452	1
9	6223	3456	1
9	6227	3460	1
9	6234	3464	1
9	6243	3468	1
9	6252	3472	1
9	6260	3476	1
9	6264	3480	1
9	6271	3484	1
9	6280	3488	1
9	6289	3492	1
9	6298	3496	1
9	6302	3500	1
9	6310	3504	1
9	6319	3508	1
9	6327	3512	1
9	6335	3516	1
9	6339	3520	1
9	6347	3524	1
9	6355	3528	1
9	6363	3532	1
9	6372	3536	1
9	6376	3540	1
9	6384	3544	1
9	6393	3548	1
9	6401	3552	1
9	6409	3556	1
9	6413	3560	1
9	6421	3564	1
9	6430	3568	1
9	6439	3572	1
9	6448	3576	1
9	6452	3580	1
9	6460	3584	1
9	6469	3588	1
9	6477	3592	1
9	6485	3596	1
9	6489	3600	1
10	79	45	1
10	88	50	1
10	221	125	1
10	342	195	1
10	2564	1435	1
10	2791	1565	1
10	2856	1600	1
10	2898	1625	1
10	3311	1855	1
10	3323	1860	1
10	3459	1940	1
10	3468	1945	1
10	3477	1950	1
10	3498	1960	1
10	3542	1985	1
10	3551	1990	1
10	3593	2015	1
10	3638	2040	1
10	3647	2045	1
10	3663	2055	1
10	3682	2065	1
10	3691	2070	1
10	3700	2075	1
10	3712	2080	1
10	3728	2090	1
10	3737	2095	1
10	3749	2100	1
10	3784	2120	1
10	3793	2125	1
10	3809	2135	1
10	3821	2140	1
10	3830	2145	1
10	3839	2150	1
10	3848	2155	1
10	3860	2160	1
10	3876	2170	1
10	3885	2175	1
10	3897	2180	1
10	3906	2185	1
10	3915	2190	1
10	3934	2200	1
10	3943	2205	1
10	3952	2210	1
10	3971	2220	1
10	3980	2225	1
10	3989	2230	1
10	4024	2250	1
10	4033	2255	1
10	4045	2260	1
10	4054	2265	1
10	4063	2270	1
10	4072	2275	1
10	4084	2280	1
10	4093	2285	1
10	4102	2290	1
10	4111	2295	1
10	4130	2305	1
10	4139	2310	1
10	4148	2315	1
10	4160	2320	1
10	4169	2325	1
10	4185	2335	1
10	4197	2340	1
10	4206	2345	1
10	4232	2360	1
10	4241	2365	1
10	4250	2370	1
10	4259	2375	1
10	4271	2380	1
10	4287	2390	1
10	4296	2395	1
10	4308	2400	1
10	4317	2405	1
10	4326	2410	1
10	4335	2415	1
10	4347	2420	1
10	4356	2425	1
10	4389	2445	1
10	4398	2450	1
10	4407	2455	1
10	4419	2460	1
10	4485	2500	1
10	4494	2505	1
10	4510	2515	1
10	4522	2520	1
10	4531	2525	1
10	4540	2530	1
10	4549	2535	1
10	4568	2545	1
10	4584	2555	1
10	4603	2565	1
10	4619	2575	1
10	4631	2580	1
10	4640	2585	1
10	4656	2595	1
10	4668	2600	1
10	4677	2605	1
10	4686	2610	1
10	4695	2615	1
10	4707	2620	1
10	4716	2625	1
10	4732	2635	1
10	4744	2640	1
10	4753	2645	1
10	4762	2650	1
10	4771	2655	1
10	4783	2660	1
10	4792	2665	1
10	4851	2700	1
10	4867	2710	1
10	4876	2715	1
10	4895	2725	1
10	4911	2735	1
10	4923	2740	1
10	4932	2745	1
10	4941	2750	1
10	4950	2755	1
10	4962	2760	1
10	4978	2770	1
10	4987	2775	1
10	4999	2780	1
10	5008	2785	1
10	5017	2790	1
10	5026	2795	1
10	5045	2805	1
10	5054	2810	1
10	5080	2825	1
10	5096	2835	1
10	5115	2845	1
10	5124	2850	1
10	5133	2855	1
10	5145	2860	1
10	5180	2880	1
10	5196	2890	1
10	5205	2895	1
10	5217	2900	1
10	5226	2905	1
10	5235	2910	1
10	5261	2925	1
10	5270	2930	1
10	5279	2935	1
10	5291	2940	1
10	5307	2950	1
10	5326	2960	1
10	5335	2965	1
10	5344	2970	1
10	5353	2975	1
10	5365	2980	1
10	5381	2990	1
10	5390	2995	1
10	5402	3000	1
10	5418	3010	1
10	5427	3015	1
10	5460	3035	1
10	5472	3040	1
10	5481	3045	1
10	5490	3050	1
10	5499	3055	1
10	5511	3060	1
10	5527	3070	1
10	5536	3075	1
10	5548	3080	1
10	5632	3130	1
10	5674	3155	1
10	5686	3160	1
10	5695	3165	1
10	5704	3170	1
10	5713	3175	1
10	5772	3210	1
10	5781	3215	1
10	5800	3225	1
10	5809	3230	1
10	5818	3235	1
10	5830	3240	1
10	5839	3245	1
10	5848	3250	1
10	5857	3255	1
10	5869	3260	1
10	5878	3265	1
10	5887	3270	1
10	5896	3275	1
10	5915	3285	1
10	5931	3295	1
10	5943	3300	1
10	5952	3305	1
10	5968	3315	1
10	5980	3320	1
10	6022	3345	1
10	6031	3350	1
10	6040	3355	1
10	6066	3370	1
10	6075	3375	1
10	6087	3380	1
10	6110	3395	1
10	6122	3400	1
10	6131	3405	1
10	6140	3410	1
10	6159	3420	1
10	6168	3425	1
10	6210	3450	1
10	6219	3455	1
10	6238	3465	1
10	6247	3470	1
10	6256	3475	1
10	6275	3485	1
10	6284	3490	1
10	6293	3495	1
10	6305	3500	1
10	6314	3505	1
10	6323	3510	1
10	6342	3520	1
10	6351	3525	1
10	6367	3535	1
10	6379	3540	1
10	6388	3545	1
10	6397	3550	1
10	6416	3560	1
10	6425	3565	1
10	6434	3570	1
10	6443	3575	1
10	6455	3580	1
10	6464	3585	1
10	6473	3590	1
10	6492	3600	1
11	79	45	41
11	88	50	42
11	221	125	113
11	342	195	179
11	2564	1435	1415
11	2791	1565	1517
11	2856	1600	1548
11	2898	1625	1497
11	3311	1855	1659
11	3323	1860	424
11	3459	1940	372
11	3468	1945	341
11	3477	1950	322
11	3498	1960	104
11	3542	1985	121
11	3551	1990	46
11	3593	2015	67
11	3638	2040	88
11	3647	2045	81
11	3663	2055	67
11	3682	2065	73
11	3691	2070	54
11	3700	2075	31
11	3712	2080	32
11	3728	2090	34
11	3737	2095	27
11	3749	2100	28
11	3784	2120	44
11	3793	2125	41
11	3809	2135	43
11	3821	2140	44
11	3830	2145	41
11	3839	2150	26
11	3848	2155	27
11	3860	2160	24
11	3876	2170	26
11	3885	2175	27
11	3897	2180	28
11	3906	2185	29
11	3915	2190	26
11	3934	2200	28
11	3943	2205	29
11	3952	2210	26
11	3971	2220	32
11	3980	2225	33
11	3989	2230	26
11	4024	2250	42
11	4033	2255	43
11	4045	2260	36
11	4054	2265	37
11	4063	2270	38
11	4072	2275	23
11	4084	2280	24
11	4093	2285	21
11	4102	2290	22
11	4111	2295	23
11	4130	2305	29
11	4139	2310	26
11	4148	2315	27
11	4160	2320	28
11	4169	2325	29
11	4185	2335	27
11	4197	2340	28
11	4206	2345	29
11	4232	2360	36
11	4241	2365	37
11	4250	2370	34
11	4259	2375	31
11	4271	2380	32
11	4287	2390	26
11	4296	2395	27
11	4308	2400	28
11	4317	2405	29
11	4326	2410	26
11	4335	2415	23
11	4347	2420	24
11	4356	2425	21
11	4389	2445	37
11	4398	2450	38
11	4407	2455	39
11	4419	2460	36
11	4485	2500	72
11	4494	2505	57
11	4510	2515	63
11	4522	2520	64
11	4531	2525	61
11	4540	2530	26
11	4549	2535	27
11	4568	2545	29
11	4584	2555	31
11	4603	2565	37
11	4619	2575	43
11	4631	2580	44
11	4640	2585	37
11	4656	2595	39
11	4668	2600	32
11	4677	2605	29
11	4686	2610	26
11	4695	2615	27
11	4707	2620	24
11	4716	2625	21
11	4732	2635	27
11	4744	2640	28
11	4753	2645	29
11	4762	2650	26
11	4771	2655	27
11	4783	2660	24
11	4792	2665	21
11	4851	2700	52
11	4867	2710	58
11	4876	2715	59
11	4895	2725	61
11	4911	2735	67
11	4923	2740	36
11	4932	2745	33
11	4941	2750	34
11	4950	2755	27
11	4962	2760	24
11	4978	2770	26
11	4987	2775	27
11	4999	2780	28
11	5008	2785	29
11	5017	2790	26
11	5026	2795	23
11	5045	2805	29
11	5054	2810	26
11	5080	2825	37
11	5096	2835	43
11	5115	2845	49
11	5124	2850	42
11	5133	2855	43
11	5145	2860	32
11	5180	2880	44
11	5196	2890	42
11	5205	2895	43
11	5217	2900	44
11	5226	2905	41
11	5235	2910	26
11	5261	2925	33
11	5270	2930	34
11	5279	2935	31
11	5291	2940	32
11	5307	2950	38
11	5326	2960	32
11	5335	2965	33
11	5344	2970	34
11	5353	2975	31
11	5365	2980	28
11	5381	2990	26
11	5390	2995	27
11	5402	3000	28
11	5418	3010	34
11	5427	3015	31
11	5460	3035	43
11	5472	3040	44
11	5481	3045	41
11	5490	3050	38
11	5499	3055	39
11	5511	3060	24
11	5527	3070	26
11	5536	3075	27
11	5548	3080	28
11	5632	3130	74
11	5674	3155	91
11	5686	3160	88
11	5695	3165	89
11	5704	3170	86
11	5713	3175	43
11	5772	3210	54
11	5781	3215	51
11	5800	3225	57
11	5809	3230	58
11	5818	3235	59
11	5830	3240	28
11	5839	3245	29
11	5848	3250	22
11	5857	3255	23
11	5869	3260	24
11	5878	3265	21
11	5887	3270	22
11	5896	3275	23
11	5915	3285	29
11	5931	3295	31
11	5943	3300	32
11	5952	3305	33
11	5968	3315	39
11	5980	3320	32
11	6022	3345	49
11	6031	3350	46
11	6040	3355	47
11	6066	3370	54
11	6075	3375	51
11	6087	3380	32
11	6110	3395	43
11	6122	3400	44
11	6131	3405	33
11	6140	3410	34
11	6159	3420	36
11	6168	3425	29
11	6210	3450	46
11	6219	3455	47
11	6238	3465	53
11	6247	3470	46
11	6256	3475	47
11	6275	3485	33
11	6284	3490	34
11	6293	3495	27
11	6305	3500	28
11	6314	3505	29
11	6323	3510	22
11	6342	3520	28
11	6351	3525	29
11	6367	3535	31
11	6379	3540	32
11	6388	3545	33
11	6397	3550	26
11	6416	3560	32
11	6425	3565	29
11	6434	3570	26
11	6443	3575	27
11	6455	3580	28
11	6464	3585	21
11	6473	3590	22
11	6492	3600	28
12	79	45	1
12	88	50	1
12	221	125	1
12	342	195	1
12	2564	1435	1
12	2791	1565	1
12	2856	1600	1
12	2898	1625	1
12	3311	1855	1
12	3323	1860	1
12	3459	1940	1
12	3468	1945	1
12	3477	1950	1
12	3498	1960	1
12	3542	1985	1
12	3551	1990	1
12	3593	2015	1
12	3638	2040	1
12	3647	2045	1
12	3663	2055	1
12	3682	2065	1
12	3691	2070	1
12	3700	2075	1
12	3712	2080	1
12	3728	2090	1
12	3737	2095	1
12	3749	2100	1
12	3784	2120	1
12	3793	2125	1
12	3809	2135	1
12	3821	2140	1
12	3830	2145	1
12	3839	2150	1
12	3848	2155	1
12	3860	2160	1
12	3876	2170	1
12	3885	2175	1
12	3897	2180	1
12	3906	2185	1
12	3915	2190	1
12	3934	2200	1
12	3943	2205	1
12	3952	2210	1
12	3971	2220	1
12	3980	2225	1
12	3989	2230	1
12	4024	2250	1
12	4033	2255	1
12	4045	2260	1
12	4054	2265	1
12	4063	2270	1
12	4072	2275	1
12	4084	2280	1
12	4093	2285	1
12	4102	2290	1
12	4111	2295	1
12	4130	2305	1
12	4139	2310	1
12	4148	2315	1
12	4160	2320	1
12	4169	2325	1
12	4185	2335	1
12	4197	2340	1
12	4206	2345	1
12	4232	2360	1
12	4241	2365	1
12	4250	2370	1
12	4259	2375	1
12	4271	2380	1
12	4287	2390	1
12	4296	2395	1
12	4308	2400	1
12	4317	2405	1
12	4326	2410	1
12	4335	2415	1
12	4347	2420	1
12	4356	2425	1
12	4389	2445	1
12	4398	2450	1
12	4407	2455	1
12	4419	2460	1
12	4485	2500	1
12	4494	2505	1
12	4510	2515	1
12	4522	2520	1
12	4531	2525	1
12	4540	2530	1
12	4549	2535	1
12	4568	2545	1
12	4584	2555	1
12	4603	2565	1
12	4619	2575	1
12	4631	2580	1
12	4640	2585	1
12	4656	2595	1
12	4668	2600	1
12	4677	2605	1
12	4686	2610	1
12	4695	2615	1
12	4707	2620	1
12	4716	2625	1
12	4732	2635	1
12	4744	2640	1
12	4753	2645	1
12	4762	2650	1
12	4771	2655	1
12	4783	2660	1
12	4792	2665	1
12	4851	2700	1
12	4867	2710	1
12	4876	2715	1
12	4895	2725	1
12	4911	2735	1
12	4923	2740	1
12	4932	2745	1
12	4941	2750	1
12	4950	2755	1
12	4962	2760	1
12	4978	2770	1
12	4987	2775	1
12	4999	2780	1
12	5008	2785	1
12	5017	2790	1
12	5026	2795	1
12	5045	2805	1
12	5054	2810	1
12	5080	2825	1
12	5096	2835	1
12	5115	2845	1
12	5124	2850	1
12	5133	2855	1
12	5145	2860	1
12	5180	2880	1
12	5196	2890	1
12	5205	2895	1
12	5217	2900	1
12	5226	2905	1
12	5235	2910	1
12	5261	2925	1
12	5270	2930	1
12	5279	2935	1
12	5291	2940	1
12	5307	2950	1
12	5326	2960	1
12	5335	2965	1
12	5344	2970	1
12	5353	2975	1
12	5365	2980	1
12	5381	2990	1
12	5390	2995	1
12	5402	3000	1
12	5418	3010	1
12	5427	3015	1
12	5460	3035	1
12	5472	3040	1
12	5481	3045	1
12	5490	3050	1
12	5499	3055	1
12	5511	3060	1
12	5527	3070	1
12	5536	3075	1
12	5548	3080	1
12	5632	3130	1
12	5674	3155	1
12	5686	3160	1
12	5695	3165	1
12	5704	3170	1
12	5713	3175	1
12	5772	3210	1
12	5781	3215	1
12	5800	3225	1
12	5809	3230	1
12	5818	3235	1
12	5830	3240	1
12	5839	3245	1
12	5848	3250	1
12	5857	3255	1
12	5869	3260	1
12	5878	3265	1
12	5887	3270	1
12	5896	3275	1
12	5915	3285	1
12	5931	3295	1
12	5943	3300	1
12	5952	3305	1
12	5968	3315	1
12	5980	3320	1
12	6022	3345	1
12	6031	3350	1
12	6040	3355	1
12	6066	3370	1
12	6075	3375	1
12	6087	3380	1
12	6110	3395	1
12	6122	3400	1
12	6131	3405	1
12	6140	3410	1
12	6159	3420	1
12	6168	3425	1
12	6210	3450	1
12	6219	3455	1
12	6238	3465	1
12	6247	3470	1
12	6256	3475	1
12	6275	3485	1
12	6284	3490	1
12	6293	3495	1
12	6305	3500	1
12	6314	3505	1
12	6323	3510	1
12	6342	3520	1
12	6351	3525	1
12	6367	3535	1
12	6379	3540	1
12	6388	3545	1
12	6397	3550	1
12	6416	3560	1
12	6425	3565	1
12	6434	3570	1
12	6443	3575	1
12	6455	3580	1
12	6464	3585	1
12	6473	3590	1
12	6492	3600	1
13	140	80	1
13	149	85	1
13	424	240	1
13	433	245	1
13	442	250	1
13	568	325	1
13	619	355	1
13	631	360	1
13	649	370	1
13	658	375	1
13	670	380	1
13	679	385	1
13	688	390	1
13	697	395	1
13	709	400	1
13	745	420	1
13	754	425	1
13	763	430	1
13	772	435	1
13	784	440	1
13	800	450	1
13	819	460	1
13	828	465	1
13	943	535	1
13	1023	580	1
13	1079	615	1
13	1201	685	1
13	1278	730	1
13	1287	735	1
13	1299	740	1
13	1308	745	1
13	1317	750	1
13	1336	760	1
13	1406	800	1
13	1415	805	1
13	1561	895	1
13	1573	900	1
13	1596	915	1
13	1608	920	1
13	1624	930	1
13	1633	935	1
13	1645	940	1
13	1654	945	1
13	1663	950	1
13	1672	955	1
13	1684	960	1
13	1693	965	1
13	1702	970	1
13	1711	975	1
13	1730	985	1
13	1765	1005	1
13	1774	1010	1
13	1783	1015	1
13	1795	1020	1
13	1804	1025	1
13	1813	1030	1
13	1822	1035	1
13	1834	1040	1
13	1850	1050	1
13	1859	1055	1
13	1871	1060	1
13	1880	1065	1
13	1896	1075	1
13	1908	1080	1
13	1917	1085	1
13	1926	1090	1
13	1945	1100	1
13	1954	1105	1
13	1970	1115	1
13	1982	1120	1
13	1991	1125	1
13	2000	1130	1
13	2009	1135	1
13	2021	1140	1
13	2030	1145	1
13	2039	1150	1
13	2048	1155	1
13	2060	1160	1
13	2069	1165	1
13	2095	1180	1
13	2137	1205	1
13	2146	1210	1
13	2155	1215	1
13	2167	1220	1
13	2176	1225	1
13	2192	1235	1
13	2204	1240	1
13	2213	1245	1
13	2222	1250	1
13	2241	1260	1
13	2250	1265	1
13	2259	1270	1
13	2268	1275	1
13	2280	1280	1
13	2289	1285	1
13	2298	1290	1
13	2317	1300	1
13	2326	1305	1
13	2335	1310	1
13	2344	1315	1
13	2356	1320	1
13	2365	1325	1
13	2374	1330	1
13	2400	1345	1
13	2409	1350	1
13	2418	1355	1
13	2430	1360	1
13	2472	1385	1
13	2488	1395	1
13	2500	1400	1
13	2509	1405	1
13	2518	1410	1
13	2537	1420	1
13	2546	1425	1
13	2555	1430	1
13	2623	1470	1
13	2675	1500	1
13	2684	1505	1
13	2693	1510	1
13	2712	1520	1
13	2721	1525	1
13	2770	1555	1
13	2782	1560	1
13	2826	1585	1
13	2835	1590	1
13	2844	1595	1
13	2916	1635	1
13	2928	1640	1
13	2937	1645	1
13	2946	1650	1
13	2955	1655	1
13	3007	1685	1
13	3049	1710	1
13	3058	1715	1
13	3070	1720	1
13	3093	1735	1
13	3128	1755	1
13	3140	1760	1
13	3149	1765	1
13	3165	1775	1
13	3177	1780	1
13	3193	1790	1
13	3202	1795	1
13	3214	1800	1
13	3223	1805	1
13	3232	1810	1
13	3241	1815	1
13	3253	1820	1
13	3262	1825	1
13	3358	1880	1
13	3374	1890	1
13	3486	1955	1
13	3507	1965	1
14	140	80	76
14	149	85	77
14	424	240	228
14	433	245	229
14	442	250	230
14	568	325	241
14	619	355	267
14	631	360	116
14	649	370	122
14	658	375	123
14	670	380	52
14	679	385	29
14	688	390	26
14	697	395	23
14	709	400	24
14	745	420	36
14	754	425	37
14	763	430	38
14	772	435	39
14	784	440	36
14	800	450	26
14	819	460	32
14	828	465	33
14	943	535	99
14	1023	580	136
14	1079	615	163
14	1201	685	221
14	1278	730	262
14	1287	735	199
14	1299	740	156
14	1308	745	129
14	1317	750	62
14	1336	760	28
14	1406	800	64
14	1415	805	61
14	1561	895	147
14	1573	900	148
14	1596	915	151
14	1608	920	116
14	1624	930	122
14	1633	935	39
14	1645	940	36
14	1654	945	29
14	1663	950	26
14	1672	955	23
14	1684	960	24
14	1693	965	21
14	1702	970	22
14	1711	975	23
14	1730	985	29
14	1765	1005	41
14	1774	1010	42
14	1783	1015	43
14	1795	1020	44
14	1804	1025	37
14	1813	1030	22
14	1822	1035	23
14	1834	1040	24
14	1850	1050	26
14	1859	1055	27
14	1871	1060	28
14	1880	1065	29
14	1896	1075	31
14	1908	1080	28
14	1917	1085	29
14	1926	1090	26
14	1945	1100	32
14	1954	1105	29
14	1970	1115	31
14	1982	1120	32
14	1991	1125	33
14	2000	1130	26
14	2009	1135	27
14	2021	1140	24
14	2030	1145	21
14	2039	1150	22
14	2048	1155	23
14	2060	1160	24
14	2069	1165	21
14	2095	1180	32
14	2137	1205	53
14	2146	1210	54
14	2155	1215	51
14	2167	1220	52
14	2176	1225	41
14	2192	1235	27
14	2204	1240	28
14	2213	1245	29
14	2222	1250	26
14	2241	1260	32
14	2250	1265	29
14	2259	1270	26
14	2268	1275	27
14	2280	1280	28
14	2289	1285	21
14	2298	1290	22
14	2317	1300	28
14	2326	1305	29
14	2335	1310	26
14	2344	1315	27
14	2356	1320	28
14	2365	1325	21
14	2374	1330	22
14	2400	1345	33
14	2409	1350	34
14	2418	1355	31
14	2430	1360	32
14	2472	1385	53
14	2488	1395	47
14	2500	1400	48
14	2509	1405	49
14	2518	1410	46
14	2537	1420	32
14	2546	1425	29
14	2555	1430	26
14	2623	1470	62
14	2675	1500	88
14	2684	1505	81
14	2693	1510	82
14	2712	1520	88
14	2721	1525	53
14	2770	1555	51
14	2782	1560	52
14	2826	1585	73
14	2835	1590	66
14	2844	1595	67
14	2916	1635	79
14	2928	1640	76
14	2937	1645	57
14	2946	1650	58
14	2955	1655	59
14	3007	1685	49
14	3049	1710	66
14	3058	1715	67
14	3070	1720	68
14	3093	1735	79
14	3128	1755	67
14	3140	1760	48
14	3149	1765	49
14	3165	1775	51
14	3177	1780	44
14	3193	1790	34
14	3202	1795	31
14	3214	1800	32
14	3223	1805	29
14	3232	1810	26
14	3241	1815	23
14	3253	1820	24
14	3262	1825	21
14	3358	1880	72
14	3374	1890	78
14	3486	1955	139
14	3507	1965	141
15	140	80	1
15	149	85	1
15	424	240	1
15	433	245	1
15	442	250	1
15	568	325	1
15	619	355	1
15	631	360	1
15	649	370	1
15	658	375	1
15	670	380	1
15	679	385	1
15	688	390	1
15	697	395	1
15	709	400	1
15	745	420	1
15	754	425	1
15	763	430	1
15	772	435	1
15	784	440	1
15	800	450	1
15	819	460	1
15	828	465	1
15	943	535	1
15	1023	580	1
15	1079	615	1
15	1201	685	1
15	1278	730	1
15	1287	735	1
15	1299	740	1
15	1308	745	1
15	1317	750	1
15	1336	760	1
15	1406	800	1
15	1415	805	1
15	1561	895	1
15	1573	900	1
15	1596	915	1
15	1608	920	1
15	1624	930	1
15	1633	935	1
15	1645	940	1
15	1654	945	1
15	1663	950	1
15	1672	955	1
15	1684	960	1
15	1693	965	1
15	1702	970	1
15	1711	975	1
15	1730	985	1
15	1765	1005	1
15	1774	1010	1
15	1783	1015	1
15	1795	1020	1
15	1804	1025	1
15	1813	1030	1
15	1822	1035	1
15	1834	1040	1
15	1850	1050	1
15	1859	1055	1
15	1871	1060	1
15	1880	1065	1
15	1896	1075	1
15	1908	1080	1
15	1917	1085	1
15	1926	1090	1
15	1945	1100	1
15	1954	1105	1
15	1970	1115	1
15	1982	1120	1
15	1991	1125	1
15	2000	1130	1
15	2009	1135	1
15	2021	1140	1
15	2030	1145	1
15	2039	1150	1
15	2048	1155	1
15	2060	1160	1
15	2069	1165	1
15	2095	1180	1
15	2137	1205	1
15	2146	1210	1
15	2155	1215	1
15	2167	1220	1
15	2176	1225	1
15	2192	1235	1
15	2204	1240	1
15	2213	1245	1
15	2222	1250	1
15	2241	1260	1
15	2250	1265	1
15	2259	1270	1
15	2268	1275	1
15	2280	1280	1
15	2289	1285	1
15	2298	1290	1
15	2317	1300	1
15	2326	1305	1
15	2335	1310	1
15	2344	1315	1
15	2356	1320	1
15	2365	1325	1
15	2374	1330	1
15	2400	1345	1
15	2409	1350	1
15	2418	1355	1
15	2430	1360	1
15	2472	1385	1
15	2488	1395	1
15	2500	1400	1
15	2509	1405	1
15	2518	1410	1
15	2537	1420	1
15	2546	1425	1
15	2555	1430	1
15	2623	1470	1
15	2675	1500	1
15	2684	1505	1
15	2693	1510	1
15	2712	1520	1
15	2721	1525	1
15	2770	1555	1
15	2782	1560	1
15	2826	1585	1
15	2835	1590	1
15	2844	1595	1
15	2916	1635	1
15	2928	1640	1
15	2937	1645	1
15	2946	1650	1
15	2955	1655	1
15	3007	1685	1
15	3049	1710	1
15	3058	1715	1
15	3070	1720	1
15	3093	1735	1
15	3128	1755	1
15	3140	1760	1
15	3149	1765	1
15	3165	1775	1
15	3177	1780	1
15	3193	1790	1
15	3202	1795	1
15	3214	1800	1
15	3223	1805	1
15	3232	1810	1
15	3241	1815	1
15	3253	1820	1
15	3262	1825	1
15	3358	1880	1
15	3374	1890	1
15	3486	1955	1
15	3507	1965	1

