version 2
run FourthVerification-6-20201214-15:14:41-220638
attr configname FourthVerification
attr datetime 20201214-15:14:41
attr experiment FourthVerification
attr inifile omnetpp.ini
attr iterationvars "$0=3, $1=0.6"
attr iterationvarsf 3,0.6-
attr measurement "$0=3, $1=0.6"
attr network slottedNetwork
attr processid 220638
attr repetition 0
attr replication #0
attr resultdir results
attr runnumber 6
attr seedset 6
param **.numTransmitters 3
param **.numChannels 1
param **.bufferSize 5
param **.sendProbability 0.6
param **.expMean 4s
param **.timeSlotSize 5s
param **.thresh 20s
param **.deterministicInterarrivalTime true
param **.numTransmitters 1
param **.numChannels 1
param **.bufferSize 5
param **.sendProbability 1
param **.expMean 5s
param **.timeSlotSize 5s
param **.thresh 20s
param **.deterministicInterarrivalTime false

vector 0 slottedNetwork.transmitters[0] numPacketCreated:vector ETV
attr source numPacketCreatedSignal
vector 1 slottedNetwork.transmitters[1] numPacketCreated:vector ETV
attr source numPacketCreatedSignal
vector 2 slottedNetwork.transmitters[2] numPacketCreated:vector ETV
attr source numPacketCreatedSignal
vector 3 slottedNetwork.ch throughput:vector ETV
attr source throughputSignal
vector 4 slottedNetwork.transmitters[0] numPacketDiscarded:vector ETV
attr source numPacketDiscardedSignal
vector 5 slottedNetwork.transmitters[1] numPacketDiscarded:vector ETV
attr source numPacketDiscardedSignal
vector 6 slottedNetwork.transmitters[2] numPacketDiscarded:vector ETV
attr source numPacketDiscardedSignal
vector 7 slottedNetwork.receivers[0] numPacketReceived:vector ETV
attr source numPacketReceivedSignal
vector 8 slottedNetwork.receivers[0] responseTime:vector ETV
attr source responseTimeSignal
vector 9 slottedNetwork.receivers[0] threshold:vector ETV
attr source thresholdSignal
vector 10 slottedNetwork.receivers[1] numPacketReceived:vector ETV
attr source numPacketReceivedSignal
vector 11 slottedNetwork.receivers[1] responseTime:vector ETV
attr source responseTimeSignal
vector 12 slottedNetwork.receivers[1] threshold:vector ETV
attr source thresholdSignal
vector 13 slottedNetwork.receivers[2] numPacketReceived:vector ETV
attr source numPacketReceivedSignal
vector 14 slottedNetwork.receivers[2] responseTime:vector ETV
attr source responseTimeSignal
vector 15 slottedNetwork.receivers[2] threshold:vector ETV
attr source thresholdSignal
0	1	4	1
0	11	8	1
0	18	12	1
0	25	16	1
0	29	20	1
0	35	24	1
0	42	28	1
0	50	32	1
0	60	36	1
0	64	40	1
0	71	44	1
0	80	48	1
0	89	52	1
0	97	56	1
0	101	60	1
0	108	64	1
0	117	68	1
0	127	72	1
0	134	76	1
0	138	80	1
0	144	84	1
0	154	88	1
0	161	92	1
0	168	96	1
0	172	100	1
0	179	104	1
0	189	108	1
0	196	112	1
0	203	116	1
0	207	120	1
0	213	124	1
0	220	128	1
0	227	132	1
0	235	136	1
0	239	140	1
0	247	144	1
0	257	148	1
0	264	152	1
0	271	156	1
0	275	160	1
0	281	164	1
0	289	168	1
0	298	172	1
0	306	176	1
0	310	180	1
0	316	184	1
0	324	188	1
0	332	192	1
0	341	196	1
0	345	200	1
0	351	204	1
0	358	208	1
0	366	212	1
0	375	216	1
0	379	220	1
0	386	224	1
0	393	228	1
0	400	232	1
0	407	236	1
0	411	240	1
0	418	244	1
0	426	248	1
0	433	252	1
0	440	256	1
0	444	260	1
0	452	264	1
0	459	268	1
0	466	272	1
0	473	276	1
0	477	280	1
0	483	284	1
0	490	288	1
0	498	292	1
0	506	296	1
0	510	300	1
0	517	304	1
0	526	308	1
0	535	312	1
0	544	316	1
0	548	320	1
0	556	324	1
0	564	328	1
0	572	332	1
0	581	336	1
0	585	340	1
0	593	344	1
0	601	348	1
0	608	352	1
0	615	356	1
0	619	360	1
0	626	364	1
0	634	368	1
0	641	372	1
0	649	376	1
0	653	380	1
0	661	384	1
0	670	388	1
0	679	392	1
0	689	396	1
0	693	400	1
0	699	404	1
0	706	408	1
0	713	412	1
0	720	416	1
0	724	420	1
0	731	424	1
0	740	428	1
0	749	432	1
0	757	436	1
0	761	440	1
0	768	444	1
0	778	448	1
0	785	452	1
0	792	456	1
0	796	460	1
0	802	464	1
0	809	468	1
0	817	472	1
0	825	476	1
0	829	480	1
0	836	484	1
0	844	488	1
0	852	492	1
0	861	496	1
0	865	500	1
0	873	504	1
0	882	508	1
0	890	512	1
0	898	516	1
0	902	520	1
0	910	524	1
0	919	528	1
0	928	532	1
0	937	536	1
0	941	540	1
0	949	544	1
0	957	548	1
0	964	552	1
0	972	556	1
0	976	560	1
0	983	564	1
0	991	568	1
0	999	572	1
0	1007	576	1
0	1011	580	1
0	1018	584	1
0	1026	588	1
0	1034	592	1
0	1041	596	1
0	1045	600	1
0	1052	604	1
0	1060	608	1
0	1067	612	1
0	1075	616	1
0	1079	620	1
0	1087	624	1
0	1096	628	1
0	1104	632	1
0	1111	636	1
0	1115	640	1
0	1121	644	1
0	1129	648	1
0	1137	652	1
0	1145	656	1
0	1149	660	1
0	1157	664	1
0	1165	668	1
0	1173	672	1
0	1181	676	1
0	1185	680	1
0	1193	684	1
0	1200	688	1
0	1207	692	1
0	1215	696	1
0	1219	700	1
0	1226	704	1
0	1234	708	1
0	1243	712	1
0	1251	716	1
0	1255	720	1
0	1262	724	1
0	1270	728	1
0	1277	732	1
0	1285	736	1
0	1289	740	1
0	1296	744	1
0	1304	748	1
0	1313	752	1
0	1322	756	1
0	1326	760	1
0	1333	764	1
0	1341	768	1
0	1350	772	1
0	1359	776	1
0	1363	780	1
0	1371	784	1
0	1380	788	1
0	1389	792	1
0	1398	796	1
0	1402	800	1
0	1410	804	1
0	1418	808	1
0	1426	812	1
0	1435	816	1
0	1439	820	1
0	1447	824	1
0	1456	828	1
0	1465	832	1
0	1474	836	1
0	1478	840	1
0	1485	844	1
0	1493	848	1
0	1501	852	1
0	1509	856	1
0	1513	860	1
0	1521	864	1
0	1529	868	1
0	1536	872	1
0	1543	876	1
0	1547	880	1
0	1554	884	1
0	1563	888	1
0	1572	892	1
0	1581	896	1
0	1585	900	1
0	1594	904	1
0	1601	908	1
0	1608	912	1
0	1615	916	1
0	1619	920	1
0	1625	924	1
0	1634	928	1
0	1641	932	1
0	1648	936	1
0	1652	940	1
0	1658	944	1
0	1665	948	1
0	1673	952	1
0	1683	956	1
0	1687	960	1
0	1693	964	1
0	1700	968	1
0	1707	972	1
0	1715	976	1
0	1719	980	1
0	1726	984	1
0	1734	988	1
0	1743	992	1
0	1751	996	1
0	1755	1000	1
0	1762	1004	1
0	1771	1008	1
0	1780	1012	1
0	1790	1016	1
0	1794	1020	1
0	1800	1024	1
0	1807	1028	1
0	1814	1032	1
0	1821	1036	1
0	1825	1040	1
0	1831	1044	1
0	1839	1048	1
0	1847	1052	1
0	1855	1056	1
0	1859	1060	1
0	1867	1064	1
0	1875	1068	1
0	1882	1072	1
0	1890	1076	1
0	1894	1080	1
0	1902	1084	1
0	1912	1088	1
0	1919	1092	1
0	1926	1096	1
0	1930	1100	1
0	1937	1104	1
0	1946	1108	1
0	1954	1112	1
0	1962	1116	1
0	1966	1120	1
0	1974	1124	1
0	1983	1128	1
0	1992	1132	1
0	2001	1136	1
0	2005	1140	1
0	2013	1144	1
0	2022	1148	1
0	2030	1152	1
0	2038	1156	1
0	2042	1160	1
0	2050	1164	1
0	2058	1168	1
0	2066	1172	1
0	2075	1176	1
0	2079	1180	1
0	2087	1184	1
0	2095	1188	1
0	2103	1192	1
0	2112	1196	1
0	2116	1200	1
0	2124	1204	1
0	2133	1208	1
0	2141	1212	1
0	2149	1216	1
0	2153	1220	1
0	2160	1224	1
0	2168	1228	1
0	2176	1232	1
0	2183	1236	1
0	2187	1240	1
0	2194	1244	1
0	2203	1248	1
0	2211	1252	1
0	2219	1256	1
0	2223	1260	1
0	2230	1264	1
0	2238	1268	1
0	2246	1272	1
0	2254	1276	1
0	2258	1280	1
0	2266	1284	1
0	2274	1288	1
0	2282	1292	1
0	2291	1296	1
0	2295	1300	1
0	2303	1304	1
0	2311	1308	1
0	2318	1312	1
0	2326	1316	1
0	2330	1320	1
0	2337	1324	1
0	2344	1328	1
0	2352	1332	1
0	2361	1336	1
0	2365	1340	1
0	2373	1344	1
0	2382	1348	1
0	2391	1352	1
0	2399	1356	1
0	2403	1360	1
0	2410	1364	1
0	2418	1368	1
0	2425	1372	1
0	2432	1376	1
0	2436	1380	1
0	2442	1384	1
0	2450	1388	1
0	2458	1392	1
0	2466	1396	1
0	2470	1400	1
0	2477	1404	1
0	2484	1408	1
0	2492	1412	1
0	2500	1416	1
0	2504	1420	1
0	2511	1424	1
0	2521	1428	1
0	2528	1432	1
0	2535	1436	1
0	2539	1440	1
0	2545	1444	1
0	2552	1448	1
0	2560	1452	1
0	2568	1456	1
0	2572	1460	1
0	2578	1464	1
0	2585	1468	1
0	2593	1472	1
0	2602	1476	1
0	2606	1480	1
0	2613	1484	1
0	2620	1488	1
0	2627	1492	1
0	2634	1496	1
0	2638	1500	1
0	2644	1504	1
0	2652	1508	1
0	2660	1512	1
0	2668	1516	1
0	2672	1520	1
0	2679	1524	1
0	2686	1528	1
0	2693	1532	1
0	2700	1536	1
0	2704	1540	1
0	2710	1544	1
0	2717	1548	1
0	2725	1552	1
0	2734	1556	1
0	2738	1560	1
0	2746	1564	1
0	2755	1568	1
0	2763	1572	1
0	2771	1576	1
0	2775	1580	1
0	2782	1584	1
0	2790	1588	1
0	2799	1592	1
0	2808	1596	1
0	2812	1600	1
0	2819	1604	1
0	2826	1608	1
0	2833	1612	1
0	2841	1616	1
0	2845	1620	1
0	2852	1624	1
0	2860	1628	1
0	2870	1632	1
0	2877	1636	1
0	2881	1640	1
0	2887	1644	1
0	2894	1648	1
0	2901	1652	1
0	2909	1656	1
0	2913	1660	1
0	2922	1664	1
0	2929	1668	1
0	2937	1672	1
0	2945	1676	1
0	2949	1680	1
0	2956	1684	1
0	2966	1688	1
0	2974	1692	1
0	2982	1696	1
0	2986	1700	1
0	2992	1704	1
0	3001	1708	1
0	3008	1712	1
0	3015	1716	1
0	3019	1720	1
0	3025	1724	1
0	3032	1728	1
0	3039	1732	1
0	3046	1736	1
0	3050	1740	1
0	3056	1744	1
0	3065	1748	1
0	3072	1752	1
0	3079	1756	1
0	3083	1760	1
0	3090	1764	1
0	3099	1768	1
0	3109	1772	1
0	3116	1776	1
0	3120	1780	1
0	3127	1784	1
0	3136	1788	1
0	3145	1792	1
0	3153	1796	1
0	3157	1800	1
0	3165	1804	1
0	3172	1808	1
0	3180	1812	1
0	3189	1816	1
0	3193	1820	1
0	3200	1824	1
0	3208	1828	1
0	3217	1832	1
0	3228	1836	1
0	3232	1840	1
0	3238	1844	1
0	3245	1848	1
0	3252	1852	1
0	3259	1856	1
0	3263	1860	1
0	3269	1864	1
0	3276	1868	1
0	3284	1872	1
0	3292	1876	1
0	3296	1880	1
0	3304	1884	1
0	3311	1888	1
0	3318	1892	1
0	3326	1896	1
0	3330	1900	1
0	3338	1904	1
0	3346	1908	1
0	3355	1912	1
0	3362	1916	1
0	3366	1920	1
0	3372	1924	1
0	3379	1928	1
0	3387	1932	1
0	3397	1936	1
0	3401	1940	1
0	3407	1944	1
0	3414	1948	1
0	3421	1952	1
0	3430	1956	1
0	3434	1960	1
0	3440	1964	1
0	3447	1968	1
0	3454	1972	1
0	3462	1976	1
0	3466	1980	1
0	3473	1984	1
0	3480	1988	1
0	3489	1992	1
0	3496	1996	1
0	3500	2000	1
0	3506	2004	1
0	3513	2008	1
0	3522	2012	1
0	3529	2016	1
0	3533	2020	1
0	3540	2024	1
0	3548	2028	1
0	3556	2032	1
0	3564	2036	1
0	3568	2040	1
0	3575	2044	1
0	3584	2048	1
0	3594	2052	1
0	3601	2056	1
0	3605	2060	1
0	3611	2064	1
0	3618	2068	1
0	3626	2072	1
0	3635	2076	1
0	3639	2080	1
0	3648	2084	1
0	3655	2088	1
0	3662	2092	1
0	3669	2096	1
0	3673	2100	1
0	3680	2104	1
0	3689	2108	1
0	3698	2112	1
0	3707	2116	1
0	3711	2120	1
0	3719	2124	1
0	3728	2128	1
0	3736	2132	1
0	3744	2136	1
0	3748	2140	1
0	3757	2144	1
0	3764	2148	1
0	3771	2152	1
0	3778	2156	1
0	3782	2160	1
0	3790	2164	1
0	3797	2168	1
0	3804	2172	1
0	3811	2176	1
0	3815	2180	1
0	3822	2184	1
0	3830	2188	1
0	3838	2192	1
0	3847	2196	1
0	3851	2200	1
0	3860	2204	1
0	3867	2208	1
0	3875	2212	1
0	3883	2216	1
0	3887	2220	1
0	3894	2224	1
0	3905	2228	1
0	3912	2232	1
0	3919	2236	1
0	3923	2240	1
0	3929	2244	1
0	3936	2248	1
0	3944	2252	1
0	3952	2256	1
0	3956	2260	1
0	3962	2264	1
0	3972	2268	1
0	3979	2272	1
0	3986	2276	1
0	3990	2280	1
0	3997	2284	1
0	4006	2288	1
0	4015	2292	1
0	4024	2296	1
0	4028	2300	1
0	4037	2304	1
0	4044	2308	1
0	4051	2312	1
0	4060	2316	1
0	4064	2320	1
0	4071	2324	1
0	4080	2328	1
0	4089	2332	1
0	4099	2336	1
0	4103	2340	1
0	4109	2344	1
0	4116	2348	1
0	4123	2352	1
0	4130	2356	1
0	4134	2360	1
0	4141	2364	1
0	4150	2368	1
0	4159	2372	1
0	4167	2376	1
0	4171	2380	1
0	4178	2384	1
0	4188	2388	1
0	4195	2392	1
0	4202	2396	1
0	4206	2400	1
0	4213	2404	1
0	4221	2408	1
0	4228	2412	1
0	4237	2416	1
0	4241	2420	1
0	4248	2424	1
0	4257	2428	1
0	4267	2432	1
0	4274	2436	1
0	4278	2440	1
0	4284	2444	1
0	4291	2448	1
0	4299	2452	1
0	4309	2456	1
0	4313	2460	1
0	4319	2464	1
0	4326	2468	1
0	4333	2472	1
0	4341	2476	1
0	4345	2480	1
0	4353	2484	1
0	4363	2488	1
0	4370	2492	1
0	4377	2496	1
0	4381	2500	1
0	4387	2504	1
0	4395	2508	1
0	4404	2512	1
0	4414	2516	1
0	4418	2520	1
0	4425	2524	1
0	4434	2528	1
0	4442	2532	1
0	4449	2536	1
0	4453	2540	1
0	4460	2544	1
0	4470	2548	1
0	4477	2552	1
0	4484	2556	1
0	4488	2560	1
0	4494	2564	1
0	4502	2568	1
0	4512	2572	1
0	4519	2576	1
0	4523	2580	1
0	4529	2584	1
0	4537	2588	1
0	4546	2592	1
0	4556	2596	1
0	4560	2600	1
0	4567	2604	1
0	4576	2608	1
0	4586	2612	1
0	4593	2616	1
0	4597	2620	1
0	4603	2624	1
0	4611	2628	1
0	4620	2632	1
0	4629	2636	1
0	4633	2640	1
0	4642	2644	1
0	4650	2648	1
0	4659	2652	1
0	4668	2656	1
0	4672	2660	1
0	4680	2664	1
0	4689	2668	1
0	4697	2672	1
0	4707	2676	1
0	4711	2680	1
0	4717	2684	1
0	4724	2688	1
0	4731	2692	1
0	4738	2696	1
0	4742	2700	1
0	4749	2704	1
0	4758	2708	1
0	4768	2712	1
0	4776	2716	1
0	4780	2720	1
0	4788	2724	1
0	4796	2728	1
0	4804	2732	1
0	4813	2736	1
0	4817	2740	1
0	4825	2744	1
0	4835	2748	1
0	4842	2752	1
0	4849	2756	1
0	4853	2760	1
0	4860	2764	1
0	4869	2768	1
0	4878	2772	1
0	4886	2776	1
0	4890	2780	1
0	4899	2784	1
0	4906	2788	1
0	4913	2792	1
0	4921	2796	1
0	4925	2800	1
0	4933	2804	1
0	4942	2808	1
0	4950	2812	1
0	4958	2816	1
0	4962	2820	1
0	4969	2824	1
0	4978	2828	1
0	4985	2832	1
0	4992	2836	1
0	4996	2840	1
0	5002	2844	1
0	5009	2848	1
0	5016	2852	1
0	5025	2856	1
0	5029	2860	1
0	5035	2864	1
0	5043	2868	1
0	5052	2872	1
0	5061	2876	1
0	5065	2880	1
0	5073	2884	1
0	5083	2888	1
0	5090	2892	1
0	5097	2896	1
0	5101	2900	1
0	5107	2904	1
0	5114	2908	1
0	5122	2912	1
0	5130	2916	1
0	5134	2920	1
0	5142	2924	1
0	5149	2928	1
0	5156	2932	1
0	5163	2936	1
0	5167	2940	1
0	5173	2944	1
0	5180	2948	1
0	5187	2952	1
0	5194	2956	1
0	5198	2960	1
0	5205	2964	1
0	5214	2968	1
0	5223	2972	1
0	5231	2976	1
0	5235	2980	1
0	5241	2984	1
0	5249	2988	1
0	5258	2992	1
0	5266	2996	1
0	5270	3000	1
0	5277	3004	1
0	5285	3008	1
0	5293	3012	1
0	5302	3016	1
0	5306	3020	1
0	5314	3024	1
0	5324	3028	1
0	5331	3032	1
0	5338	3036	1
0	5342	3040	1
0	5349	3044	1
0	5357	3048	1
0	5365	3052	1
0	5374	3056	1
0	5378	3060	1
0	5387	3064	1
0	5394	3068	1
0	5401	3072	1
0	5408	3076	1
0	5412	3080	1
0	5419	3084	1
0	5427	3088	1
0	5436	3092	1
0	5443	3096	1
0	5447	3100	1
0	5453	3104	1
0	5460	3108	1
0	5467	3112	1
0	5475	3116	1
0	5479	3120	1
0	5487	3124	1
0	5496	3128	1
0	5504	3132	1
0	5513	3136	1
0	5517	3140	1
0	5523	3144	1
0	5530	3148	1
0	5537	3152	1
0	5544	3156	1
0	5548	3160	1
0	5554	3164	1
0	5561	3168	1
0	5569	3172	1
0	5578	3176	1
0	5582	3180	1
0	5590	3184	1
0	5599	3188	1
0	5608	3192	1
0	5617	3196	1
0	5621	3200	1
0	5629	3204	1
0	5637	3208	1
0	5644	3212	1
0	5651	3216	1
0	5655	3220	1
0	5663	3224	1
0	5670	3228	1
0	5677	3232	1
0	5684	3236	1
0	5688	3240	1
0	5695	3244	1
0	5704	3248	1
0	5713	3252	1
0	5721	3256	1
0	5725	3260	1
0	5731	3264	1
0	5738	3268	1
0	5746	3272	1
0	5754	3276	1
0	5758	3280	1
0	5764	3284	1
0	5772	3288	1
0	5780	3292	1
0	5788	3296	1
0	5792	3300	1
0	5800	3304	1
0	5810	3308	1
0	5817	3312	1
0	5824	3316	1
0	5828	3320	1
0	5834	3324	1
0	5842	3328	1
0	5852	3332	1
0	5859	3336	1
0	5863	3340	1
0	5870	3344	1
0	5879	3348	1
0	5888	3352	1
0	5898	3356	1
0	5902	3360	1
0	5908	3364	1
0	5916	3368	1
0	5925	3372	1
0	5936	3376	1
0	5940	3380	1
0	5946	3384	1
0	5953	3388	1
0	5960	3392	1
0	5967	3396	1
0	5971	3400	1
0	5977	3404	1
0	5984	3408	1
0	5992	3412	1
0	6000	3416	1
0	6004	3420	1
0	6011	3424	1
0	6021	3428	1
0	6029	3432	1
0	6038	3436	1
0	6042	3440	1
0	6050	3444	1
0	6059	3448	1
0	6068	3452	1
0	6077	3456	1
0	6081	3460	1
0	6089	3464	1
0	6098	3468	1
0	6107	3472	1
0	6115	3476	1
0	6119	3480	1
0	6126	3484	1
0	6136	3488	1
0	6143	3492	1
0	6150	3496	1
0	6154	3500	1
0	6162	3504	1
0	6169	3508	1
0	6176	3512	1
0	6184	3516	1
0	6188	3520	1
0	6197	3524	1
0	6204	3528	1
0	6211	3532	1
0	6218	3536	1
0	6222	3540	1
0	6228	3544	1
0	6235	3548	1
0	6243	3552	1
0	6253	3556	1
0	6257	3560	1
0	6263	3564	1
0	6270	3568	1
0	6277	3572	1
0	6285	3576	1
0	6289	3580	1
0	6297	3584	1
0	6306	3588	1
0	6314	3592	1
0	6321	3596	1
0	6325	3600	1
1	2	4	1
1	12	8	1
1	19	12	1
1	26	16	1
1	30	20	1
1	36	24	1
1	43	28	1
1	51	32	1
1	61	36	1
1	65	40	1
1	72	44	1
1	81	48	1
1	90	52	1
1	98	56	1
1	102	60	1
1	109	64	1
1	118	68	1
1	128	72	1
1	135	76	1
1	139	80	1
1	145	84	1
1	155	88	1
1	162	92	1
1	169	96	1
1	173	100	1
1	180	104	1
1	190	108	1
1	197	112	1
1	204	116	1
1	208	120	1
1	214	124	1
1	221	128	1
1	228	132	1
1	236	136	1
1	240	140	1
1	248	144	1
1	258	148	1
1	265	152	1
1	272	156	1
1	276	160	1
1	282	164	1
1	290	168	1
1	299	172	1
1	307	176	1
1	311	180	1
1	317	184	1
1	325	188	1
1	333	192	1
1	342	196	1
1	346	200	1
1	352	204	1
1	359	208	1
1	367	212	1
1	376	216	1
1	380	220	1
1	387	224	1
1	394	228	1
1	401	232	1
1	408	236	1
1	412	240	1
1	419	244	1
1	427	248	1
1	434	252	1
1	441	256	1
1	445	260	1
1	453	264	1
1	460	268	1
1	467	272	1
1	474	276	1
1	478	280	1
1	484	284	1
1	491	288	1
1	499	292	1
1	507	296	1
1	511	300	1
1	518	304	1
1	527	308	1
1	536	312	1
1	545	316	1
1	549	320	1
1	557	324	1
1	565	328	1
1	573	332	1
1	582	336	1
1	586	340	1
1	594	344	1
1	602	348	1
1	609	352	1
1	616	356	1
1	620	360	1
1	627	364	1
1	635	368	1
1	642	372	1
1	650	376	1
1	654	380	1
1	662	384	1
1	671	388	1
1	680	392	1
1	690	396	1
1	694	400	1
1	700	404	1
1	707	408	1
1	714	412	1
1	721	416	1
1	725	420	1
1	732	424	1
1	741	428	1
1	750	432	1
1	758	436	1
1	762	440	1
1	769	444	1
1	779	448	1
1	786	452	1
1	793	456	1
1	797	460	1
1	803	464	1
1	810	468	1
1	818	472	1
1	826	476	1
1	830	480	1
1	837	484	1
1	845	488	1
1	853	492	1
1	862	496	1
1	866	500	1
1	874	504	1
1	883	508	1
1	891	512	1
1	899	516	1
1	903	520	1
1	911	524	1
1	920	528	1
1	929	532	1
1	938	536	1
1	942	540	1
1	950	544	1
1	958	548	1
1	965	552	1
1	973	556	1
1	977	560	1
1	984	564	1
1	992	568	1
1	1000	572	1
1	1008	576	1
1	1012	580	1
1	1019	584	1
1	1027	588	1
1	1035	592	1
1	1042	596	1
1	1046	600	1
1	1053	604	1
1	1061	608	1
1	1068	612	1
1	1076	616	1
1	1080	620	1
1	1088	624	1
1	1097	628	1
1	1105	632	1
1	1112	636	1
1	1116	640	1
1	1122	644	1
1	1130	648	1
1	1138	652	1
1	1146	656	1
1	1150	660	1
1	1158	664	1
1	1166	668	1
1	1174	672	1
1	1182	676	1
1	1186	680	1
1	1194	684	1
1	1201	688	1
1	1208	692	1
1	1216	696	1
1	1220	700	1
1	1227	704	1
1	1235	708	1
1	1244	712	1
1	1252	716	1
1	1256	720	1
1	1263	724	1
1	1271	728	1
1	1278	732	1
1	1286	736	1
1	1290	740	1
1	1297	744	1
1	1305	748	1
1	1314	752	1
1	1323	756	1
1	1327	760	1
1	1334	764	1
1	1342	768	1
1	1351	772	1
1	1360	776	1
1	1364	780	1
1	1372	784	1
1	1381	788	1
1	1390	792	1
1	1399	796	1
1	1403	800	1
1	1411	804	1
1	1419	808	1
1	1427	812	1
1	1436	816	1
1	1440	820	1
1	1448	824	1
1	1457	828	1
1	1466	832	1
1	1475	836	1
1	1479	840	1
1	1486	844	1
1	1494	848	1
1	1502	852	1
1	1510	856	1
1	1514	860	1
1	1522	864	1
1	1530	868	1
1	1537	872	1
1	1544	876	1
1	1548	880	1
1	1555	884	1
1	1564	888	1
1	1573	892	1
1	1582	896	1
1	1586	900	1
1	1595	904	1
1	1602	908	1
1	1609	912	1
1	1616	916	1
1	1620	920	1
1	1626	924	1
1	1635	928	1
1	1642	932	1
1	1649	936	1
1	1653	940	1
1	1659	944	1
1	1666	948	1
1	1674	952	1
1	1684	956	1
1	1688	960	1
1	1694	964	1
1	1701	968	1
1	1708	972	1
1	1716	976	1
1	1720	980	1
1	1727	984	1
1	1735	988	1
1	1744	992	1
1	1752	996	1
1	1756	1000	1
1	1763	1004	1
1	1772	1008	1
1	1781	1012	1
1	1791	1016	1
1	1795	1020	1
1	1801	1024	1
1	1808	1028	1
1	1815	1032	1
1	1822	1036	1
1	1826	1040	1
1	1832	1044	1
1	1840	1048	1
1	1848	1052	1
1	1856	1056	1
1	1860	1060	1
1	1868	1064	1
1	1876	1068	1
1	1883	1072	1
1	1891	1076	1
1	1895	1080	1
1	1903	1084	1
1	1913	1088	1
1	1920	1092	1
1	1927	1096	1
1	1931	1100	1
1	1938	1104	1
1	1947	1108	1
1	1955	1112	1
1	1963	1116	1
1	1967	1120	1
1	1975	1124	1
1	1984	1128	1
1	1993	1132	1
1	2002	1136	1
1	2006	1140	1
1	2014	1144	1
1	2023	1148	1
1	2031	1152	1
1	2039	1156	1
1	2043	1160	1
1	2051	1164	1
1	2059	1168	1
1	2067	1172	1
1	2076	1176	1
1	2080	1180	1
1	2088	1184	1
1	2096	1188	1
1	2104	1192	1
1	2113	1196	1
1	2117	1200	1
1	2125	1204	1
1	2134	1208	1
1	2142	1212	1
1	2150	1216	1
1	2154	1220	1
1	2161	1224	1
1	2169	1228	1
1	2177	1232	1
1	2184	1236	1
1	2188	1240	1
1	2195	1244	1
1	2204	1248	1
1	2212	1252	1
1	2220	1256	1
1	2224	1260	1
1	2231	1264	1
1	2239	1268	1
1	2247	1272	1
1	2255	1276	1
1	2259	1280	1
1	2267	1284	1
1	2275	1288	1
1	2283	1292	1
1	2292	1296	1
1	2296	1300	1
1	2304	1304	1
1	2312	1308	1
1	2319	1312	1
1	2327	1316	1
1	2331	1320	1
1	2338	1324	1
1	2345	1328	1
1	2353	1332	1
1	2362	1336	1
1	2366	1340	1
1	2374	1344	1
1	2383	1348	1
1	2392	1352	1
1	2400	1356	1
1	2404	1360	1
1	2411	1364	1
1	2419	1368	1
1	2426	1372	1
1	2433	1376	1
1	2437	1380	1
1	2443	1384	1
1	2451	1388	1
1	2459	1392	1
1	2467	1396	1
1	2471	1400	1
1	2478	1404	1
1	2485	1408	1
1	2493	1412	1
1	2501	1416	1
1	2505	1420	1
1	2512	1424	1
1	2522	1428	1
1	2529	1432	1
1	2536	1436	1
1	2540	1440	1
1	2546	1444	1
1	2553	1448	1
1	2561	1452	1
1	2569	1456	1
1	2573	1460	1
1	2579	1464	1
1	2586	1468	1
1	2594	1472	1
1	2603	1476	1
1	2607	1480	1
1	2614	1484	1
1	2621	1488	1
1	2628	1492	1
1	2635	1496	1
1	2639	1500	1
1	2645	1504	1
1	2653	1508	1
1	2661	1512	1
1	2669	1516	1
1	2673	1520	1
1	2680	1524	1
1	2687	1528	1
1	2694	1532	1
1	2701	1536	1
1	2705	1540	1
1	2711	1544	1
1	2718	1548	1
1	2726	1552	1
1	2735	1556	1
1	2739	1560	1
1	2747	1564	1
1	2756	1568	1
1	2764	1572	1
1	2772	1576	1
1	2776	1580	1
1	2783	1584	1
1	2791	1588	1
1	2800	1592	1
1	2809	1596	1
1	2813	1600	1
1	2820	1604	1
1	2827	1608	1
1	2834	1612	1
1	2842	1616	1
1	2846	1620	1
1	2853	1624	1
1	2861	1628	1
1	2871	1632	1
1	2878	1636	1
1	2882	1640	1
1	2888	1644	1
1	2895	1648	1
1	2902	1652	1
1	2910	1656	1
1	2914	1660	1
1	2923	1664	1
1	2930	1668	1
1	2938	1672	1
1	2946	1676	1
1	2950	1680	1
1	2957	1684	1
1	2967	1688	1
1	2975	1692	1
1	2983	1696	1
1	2987	1700	1
1	2993	1704	1
1	3002	1708	1
1	3009	1712	1
1	3016	1716	1
1	3020	1720	1
1	3026	1724	1
1	3033	1728	1
1	3040	1732	1
1	3047	1736	1
1	3051	1740	1
1	3057	1744	1
1	3066	1748	1
1	3073	1752	1
1	3080	1756	1
1	3084	1760	1
1	3091	1764	1
1	3100	1768	1
1	3110	1772	1
1	3117	1776	1
1	3121	1780	1
1	3128	1784	1
1	3137	1788	1
1	3146	1792	1
1	3154	1796	1
1	3158	1800	1
1	3166	1804	1
1	3173	1808	1
1	3181	1812	1
1	3190	1816	1
1	3194	1820	1
1	3201	1824	1
1	3209	1828	1
1	3218	1832	1
1	3229	1836	1
1	3233	1840	1
1	3239	1844	1
1	3246	1848	1
1	3253	1852	1
1	3260	1856	1
1	3264	1860	1
1	3270	1864	1
1	3277	1868	1
1	3285	1872	1
1	3293	1876	1
1	3297	1880	1
1	3305	1884	1
1	3312	1888	1
1	3319	1892	1
1	3327	1896	1
1	3331	1900	1
1	3339	1904	1
1	3347	1908	1
1	3356	1912	1
1	3363	1916	1
1	3367	1920	1
1	3373	1924	1
1	3380	1928	1
1	3388	1932	1
1	3398	1936	1
1	3402	1940	1
1	3408	1944	1
1	3415	1948	1
1	3422	1952	1
1	3431	1956	1
1	3435	1960	1
1	3441	1964	1
1	3448	1968	1
1	3455	1972	1
1	3463	1976	1
1	3467	1980	1
1	3474	1984	1
1	3481	1988	1
1	3490	1992	1
1	3497	1996	1
1	3501	2000	1
1	3507	2004	1
1	3514	2008	1
1	3523	2012	1
1	3530	2016	1
1	3534	2020	1
1	3541	2024	1
1	3549	2028	1
1	3557	2032	1
1	3565	2036	1
1	3569	2040	1
1	3576	2044	1
1	3585	2048	1
1	3595	2052	1
1	3602	2056	1
1	3606	2060	1
1	3612	2064	1
1	3619	2068	1
1	3627	2072	1
1	3636	2076	1
1	3640	2080	1
1	3649	2084	1
1	3656	2088	1
1	3663	2092	1
1	3670	2096	1
1	3674	2100	1
1	3681	2104	1
1	3690	2108	1
1	3699	2112	1
1	3708	2116	1
1	3712	2120	1
1	3720	2124	1
1	3729	2128	1
1	3737	2132	1
1	3745	2136	1
1	3749	2140	1
1	3758	2144	1
1	3765	2148	1
1	3772	2152	1
1	3779	2156	1
1	3783	2160	1
1	3791	2164	1
1	3798	2168	1
1	3805	2172	1
1	3812	2176	1
1	3816	2180	1
1	3823	2184	1
1	3831	2188	1
1	3839	2192	1
1	3848	2196	1
1	3852	2200	1
1	3861	2204	1
1	3868	2208	1
1	3876	2212	1
1	3884	2216	1
1	3888	2220	1
1	3895	2224	1
1	3906	2228	1
1	3913	2232	1
1	3920	2236	1
1	3924	2240	1
1	3930	2244	1
1	3937	2248	1
1	3945	2252	1
1	3953	2256	1
1	3957	2260	1
1	3963	2264	1
1	3973	2268	1
1	3980	2272	1
1	3987	2276	1
1	3991	2280	1
1	3998	2284	1
1	4007	2288	1
1	4016	2292	1
1	4025	2296	1
1	4029	2300	1
1	4038	2304	1
1	4045	2308	1
1	4052	2312	1
1	4061	2316	1
1	4065	2320	1
1	4072	2324	1
1	4081	2328	1
1	4090	2332	1
1	4100	2336	1
1	4104	2340	1
1	4110	2344	1
1	4117	2348	1
1	4124	2352	1
1	4131	2356	1
1	4135	2360	1
1	4142	2364	1
1	4151	2368	1
1	4160	2372	1
1	4168	2376	1
1	4172	2380	1
1	4179	2384	1
1	4189	2388	1
1	4196	2392	1
1	4203	2396	1
1	4207	2400	1
1	4214	2404	1
1	4222	2408	1
1	4229	2412	1
1	4238	2416	1
1	4242	2420	1
1	4249	2424	1
1	4258	2428	1
1	4268	2432	1
1	4275	2436	1
1	4279	2440	1
1	4285	2444	1
1	4292	2448	1
1	4300	2452	1
1	4310	2456	1
1	4314	2460	1
1	4320	2464	1
1	4327	2468	1
1	4334	2472	1
1	4342	2476	1
1	4346	2480	1
1	4354	2484	1
1	4364	2488	1
1	4371	2492	1
1	4378	2496	1
1	4382	2500	1
1	4388	2504	1
1	4396	2508	1
1	4405	2512	1
1	4415	2516	1
1	4419	2520	1
1	4426	2524	1
1	4435	2528	1
1	4443	2532	1
1	4450	2536	1
1	4454	2540	1
1	4461	2544	1
1	4471	2548	1
1	4478	2552	1
1	4485	2556	1
1	4489	2560	1
1	4495	2564	1
1	4503	2568	1
1	4513	2572	1
1	4520	2576	1
1	4524	2580	1
1	4530	2584	1
1	4538	2588	1
1	4547	2592	1
1	4557	2596	1
1	4561	2600	1
1	4568	2604	1
1	4577	2608	1
1	4587	2612	1
1	4594	2616	1
1	4598	2620	1
1	4604	2624	1
1	4612	2628	1
1	4621	2632	1
1	4630	2636	1
1	4634	2640	1
1	4643	2644	1
1	4651	2648	1
1	4660	2652	1
1	4669	2656	1
1	4673	2660	1
1	4681	2664	1
1	4690	2668	1
1	4698	2672	1
1	4708	2676	1
1	4712	2680	1
1	4718	2684	1
1	4725	2688	1
1	4732	2692	1
1	4739	2696	1
1	4743	2700	1
1	4750	2704	1
1	4759	2708	1
1	4769	2712	1
1	4777	2716	1
1	4781	2720	1
1	4789	2724	1
1	4797	2728	1
1	4805	2732	1
1	4814	2736	1
1	4818	2740	1
1	4826	2744	1
1	4836	2748	1
1	4843	2752	1
1	4850	2756	1
1	4854	2760	1
1	4861	2764	1
1	4870	2768	1
1	4879	2772	1
1	4887	2776	1
1	4891	2780	1
1	4900	2784	1
1	4907	2788	1
1	4914	2792	1
1	4922	2796	1
1	4926	2800	1
1	4934	2804	1
1	4943	2808	1
1	4951	2812	1
1	4959	2816	1
1	4963	2820	1
1	4970	2824	1
1	4979	2828	1
1	4986	2832	1
1	4993	2836	1
1	4997	2840	1
1	5003	2844	1
1	5010	2848	1
1	5017	2852	1
1	5026	2856	1
1	5030	2860	1
1	5036	2864	1
1	5044	2868	1
1	5053	2872	1
1	5062	2876	1
1	5066	2880	1
1	5074	2884	1
1	5084	2888	1
1	5091	2892	1
1	5098	2896	1
1	5102	2900	1
1	5108	2904	1
1	5115	2908	1
1	5123	2912	1
1	5131	2916	1
1	5135	2920	1
1	5143	2924	1
1	5150	2928	1
1	5157	2932	1
1	5164	2936	1
1	5168	2940	1
1	5174	2944	1
1	5181	2948	1
1	5188	2952	1
1	5195	2956	1
1	5199	2960	1
1	5206	2964	1
1	5215	2968	1
1	5224	2972	1
1	5232	2976	1
1	5236	2980	1
1	5242	2984	1
1	5250	2988	1
1	5259	2992	1
1	5267	2996	1
1	5271	3000	1
1	5278	3004	1
1	5286	3008	1
1	5294	3012	1
1	5303	3016	1
1	5307	3020	1
1	5315	3024	1
1	5325	3028	1
1	5332	3032	1
1	5339	3036	1
1	5343	3040	1
1	5350	3044	1
1	5358	3048	1
1	5366	3052	1
1	5375	3056	1
1	5379	3060	1
1	5388	3064	1
1	5395	3068	1
1	5402	3072	1
1	5409	3076	1
1	5413	3080	1
1	5420	3084	1
1	5428	3088	1
1	5437	3092	1
1	5444	3096	1
1	5448	3100	1
1	5454	3104	1
1	5461	3108	1
1	5468	3112	1
1	5476	3116	1
1	5480	3120	1
1	5488	3124	1
1	5497	3128	1
1	5505	3132	1
1	5514	3136	1
1	5518	3140	1
1	5524	3144	1
1	5531	3148	1
1	5538	3152	1
1	5545	3156	1
1	5549	3160	1
1	5555	3164	1
1	5562	3168	1
1	5570	3172	1
1	5579	3176	1
1	5583	3180	1
1	5591	3184	1
1	5600	3188	1
1	5609	3192	1
1	5618	3196	1
1	5622	3200	1
1	5630	3204	1
1	5638	3208	1
1	5645	3212	1
1	5652	3216	1
1	5656	3220	1
1	5664	3224	1
1	5671	3228	1
1	5678	3232	1
1	5685	3236	1
1	5689	3240	1
1	5696	3244	1
1	5705	3248	1
1	5714	3252	1
1	5722	3256	1
1	5726	3260	1
1	5732	3264	1
1	5739	3268	1
1	5747	3272	1
1	5755	3276	1
1	5759	3280	1
1	5765	3284	1
1	5773	3288	1
1	5781	3292	1
1	5789	3296	1
1	5793	3300	1
1	5801	3304	1
1	5811	3308	1
1	5818	3312	1
1	5825	3316	1
1	5829	3320	1
1	5835	3324	1
1	5843	3328	1
1	5853	3332	1
1	5860	3336	1
1	5864	3340	1
1	5871	3344	1
1	5880	3348	1
1	5889	3352	1
1	5899	3356	1
1	5903	3360	1
1	5909	3364	1
1	5917	3368	1
1	5926	3372	1
1	5937	3376	1
1	5941	3380	1
1	5947	3384	1
1	5954	3388	1
1	5961	3392	1
1	5968	3396	1
1	5972	3400	1
1	5978	3404	1
1	5985	3408	1
1	5993	3412	1
1	6001	3416	1
1	6005	3420	1
1	6012	3424	1
1	6022	3428	1
1	6030	3432	1
1	6039	3436	1
1	6043	3440	1
1	6051	3444	1
1	6060	3448	1
1	6069	3452	1
1	6078	3456	1
1	6082	3460	1
1	6090	3464	1
1	6099	3468	1
1	6108	3472	1
1	6116	3476	1
1	6120	3480	1
1	6127	3484	1
1	6137	3488	1
1	6144	3492	1
1	6151	3496	1
1	6155	3500	1
1	6163	3504	1
1	6170	3508	1
1	6177	3512	1
1	6185	3516	1
1	6189	3520	1
1	6198	3524	1
1	6205	3528	1
1	6212	3532	1
1	6219	3536	1
1	6223	3540	1
1	6229	3544	1
1	6236	3548	1
1	6244	3552	1
1	6254	3556	1
1	6258	3560	1
1	6264	3564	1
1	6271	3568	1
1	6278	3572	1
1	6286	3576	1
1	6290	3580	1
1	6298	3584	1
1	6307	3588	1
1	6315	3592	1
1	6322	3596	1
1	6326	3600	1
2	3	4	1
2	13	8	1
2	20	12	1
2	27	16	1
2	31	20	1
2	37	24	1
2	44	28	1
2	52	32	1
2	62	36	1
2	66	40	1
2	73	44	1
2	82	48	1
2	91	52	1
2	99	56	1
2	103	60	1
2	110	64	1
2	119	68	1
2	129	72	1
2	136	76	1
2	140	80	1
2	146	84	1
2	156	88	1
2	163	92	1
2	170	96	1
2	174	100	1
2	181	104	1
2	191	108	1
2	198	112	1
2	205	116	1
2	209	120	1
2	215	124	1
2	222	128	1
2	229	132	1
2	237	136	1
2	241	140	1
2	249	144	1
2	259	148	1
2	266	152	1
2	273	156	1
2	277	160	1
2	283	164	1
2	291	168	1
2	300	172	1
2	308	176	1
2	312	180	1
2	318	184	1
2	326	188	1
2	334	192	1
2	343	196	1
2	347	200	1
2	353	204	1
2	360	208	1
2	368	212	1
2	377	216	1
2	381	220	1
2	388	224	1
2	395	228	1
2	402	232	1
2	409	236	1
2	413	240	1
2	420	244	1
2	428	248	1
2	435	252	1
2	442	256	1
2	446	260	1
2	454	264	1
2	461	268	1
2	468	272	1
2	475	276	1
2	479	280	1
2	485	284	1
2	492	288	1
2	500	292	1
2	508	296	1
2	512	300	1
2	519	304	1
2	528	308	1
2	537	312	1
2	546	316	1
2	550	320	1
2	558	324	1
2	566	328	1
2	574	332	1
2	583	336	1
2	587	340	1
2	595	344	1
2	603	348	1
2	610	352	1
2	617	356	1
2	621	360	1
2	628	364	1
2	636	368	1
2	643	372	1
2	651	376	1
2	655	380	1
2	663	384	1
2	672	388	1
2	681	392	1
2	691	396	1
2	695	400	1
2	701	404	1
2	708	408	1
2	715	412	1
2	722	416	1
2	726	420	1
2	733	424	1
2	742	428	1
2	751	432	1
2	759	436	1
2	763	440	1
2	770	444	1
2	780	448	1
2	787	452	1
2	794	456	1
2	798	460	1
2	804	464	1
2	811	468	1
2	819	472	1
2	827	476	1
2	831	480	1
2	838	484	1
2	846	488	1
2	854	492	1
2	863	496	1
2	867	500	1
2	875	504	1
2	884	508	1
2	892	512	1
2	900	516	1
2	904	520	1
2	912	524	1
2	921	528	1
2	930	532	1
2	939	536	1
2	943	540	1
2	951	544	1
2	959	548	1
2	966	552	1
2	974	556	1
2	978	560	1
2	985	564	1
2	993	568	1
2	1001	572	1
2	1009	576	1
2	1013	580	1
2	1020	584	1
2	1028	588	1
2	1036	592	1
2	1043	596	1
2	1047	600	1
2	1054	604	1
2	1062	608	1
2	1069	612	1
2	1077	616	1
2	1081	620	1
2	1089	624	1
2	1098	628	1
2	1106	632	1
2	1113	636	1
2	1117	640	1
2	1123	644	1
2	1131	648	1
2	1139	652	1
2	1147	656	1
2	1151	660	1
2	1159	664	1
2	1167	668	1
2	1175	672	1
2	1183	676	1
2	1187	680	1
2	1195	684	1
2	1202	688	1
2	1209	692	1
2	1217	696	1
2	1221	700	1
2	1228	704	1
2	1236	708	1
2	1245	712	1
2	1253	716	1
2	1257	720	1
2	1264	724	1
2	1272	728	1
2	1279	732	1
2	1287	736	1
2	1291	740	1
2	1298	744	1
2	1306	748	1
2	1315	752	1
2	1324	756	1
2	1328	760	1
2	1335	764	1
2	1343	768	1
2	1352	772	1
2	1361	776	1
2	1365	780	1
2	1373	784	1
2	1382	788	1
2	1391	792	1
2	1400	796	1
2	1404	800	1
2	1412	804	1
2	1420	808	1
2	1428	812	1
2	1437	816	1
2	1441	820	1
2	1449	824	1
2	1458	828	1
2	1467	832	1
2	1476	836	1
2	1480	840	1
2	1487	844	1
2	1495	848	1
2	1503	852	1
2	1511	856	1
2	1515	860	1
2	1523	864	1
2	1531	868	1
2	1538	872	1
2	1545	876	1
2	1549	880	1
2	1556	884	1
2	1565	888	1
2	1574	892	1
2	1583	896	1
2	1587	900	1
2	1596	904	1
2	1603	908	1
2	1610	912	1
2	1617	916	1
2	1621	920	1
2	1627	924	1
2	1636	928	1
2	1643	932	1
2	1650	936	1
2	1654	940	1
2	1660	944	1
2	1667	948	1
2	1675	952	1
2	1685	956	1
2	1689	960	1
2	1695	964	1
2	1702	968	1
2	1709	972	1
2	1717	976	1
2	1721	980	1
2	1728	984	1
2	1736	988	1
2	1745	992	1
2	1753	996	1
2	1757	1000	1
2	1764	1004	1
2	1773	1008	1
2	1782	1012	1
2	1792	1016	1
2	1796	1020	1
2	1802	1024	1
2	1809	1028	1
2	1816	1032	1
2	1823	1036	1
2	1827	1040	1
2	1833	1044	1
2	1841	1048	1
2	1849	1052	1
2	1857	1056	1
2	1861	1060	1
2	1869	1064	1
2	1877	1068	1
2	1884	1072	1
2	1892	1076	1
2	1896	1080	1
2	1904	1084	1
2	1914	1088	1
2	1921	1092	1
2	1928	1096	1
2	1932	1100	1
2	1939	1104	1
2	1948	1108	1
2	1956	1112	1
2	1964	1116	1
2	1968	1120	1
2	1976	1124	1
2	1985	1128	1
2	1994	1132	1
2	2003	1136	1
2	2007	1140	1
2	2015	1144	1
2	2024	1148	1
2	2032	1152	1
2	2040	1156	1
2	2044	1160	1
2	2052	1164	1
2	2060	1168	1
2	2068	1172	1
2	2077	1176	1
2	2081	1180	1
2	2089	1184	1
2	2097	1188	1
2	2105	1192	1
2	2114	1196	1
2	2118	1200	1
2	2126	1204	1
2	2135	1208	1
2	2143	1212	1
2	2151	1216	1
2	2155	1220	1
2	2162	1224	1
2	2170	1228	1
2	2178	1232	1
2	2185	1236	1
2	2189	1240	1
2	2196	1244	1
2	2205	1248	1
2	2213	1252	1
2	2221	1256	1
2	2225	1260	1
2	2232	1264	1
2	2240	1268	1
2	2248	1272	1
2	2256	1276	1
2	2260	1280	1
2	2268	1284	1
2	2276	1288	1
2	2284	1292	1
2	2293	1296	1
2	2297	1300	1
2	2305	1304	1
2	2313	1308	1
2	2320	1312	1
2	2328	1316	1
2	2332	1320	1
2	2339	1324	1
2	2346	1328	1
2	2354	1332	1
2	2363	1336	1
2	2367	1340	1
2	2375	1344	1
2	2384	1348	1
2	2393	1352	1
2	2401	1356	1
2	2405	1360	1
2	2412	1364	1
2	2420	1368	1
2	2427	1372	1
2	2434	1376	1
2	2438	1380	1
2	2444	1384	1
2	2452	1388	1
2	2460	1392	1
2	2468	1396	1
2	2472	1400	1
2	2479	1404	1
2	2486	1408	1
2	2494	1412	1
2	2502	1416	1
2	2506	1420	1
2	2513	1424	1
2	2523	1428	1
2	2530	1432	1
2	2537	1436	1
2	2541	1440	1
2	2547	1444	1
2	2554	1448	1
2	2562	1452	1
2	2570	1456	1
2	2574	1460	1
2	2580	1464	1
2	2587	1468	1
2	2595	1472	1
2	2604	1476	1
2	2608	1480	1
2	2615	1484	1
2	2622	1488	1
2	2629	1492	1
2	2636	1496	1
2	2640	1500	1
2	2646	1504	1
2	2654	1508	1
2	2662	1512	1
2	2670	1516	1
2	2674	1520	1
2	2681	1524	1
2	2688	1528	1
2	2695	1532	1
2	2702	1536	1
2	2706	1540	1
2	2712	1544	1
2	2719	1548	1
2	2727	1552	1
2	2736	1556	1
2	2740	1560	1
2	2748	1564	1
2	2757	1568	1
2	2765	1572	1
2	2773	1576	1
2	2777	1580	1
2	2784	1584	1
2	2792	1588	1
2	2801	1592	1
2	2810	1596	1
2	2814	1600	1
2	2821	1604	1
2	2828	1608	1
2	2835	1612	1
2	2843	1616	1
2	2847	1620	1
2	2854	1624	1
2	2862	1628	1
2	2872	1632	1
2	2879	1636	1
2	2883	1640	1
2	2889	1644	1
2	2896	1648	1
2	2903	1652	1
2	2911	1656	1
2	2915	1660	1
2	2924	1664	1
2	2931	1668	1
2	2939	1672	1
2	2947	1676	1
2	2951	1680	1
2	2958	1684	1
2	2968	1688	1
2	2976	1692	1
2	2984	1696	1
2	2988	1700	1
2	2994	1704	1
2	3003	1708	1
2	3010	1712	1
2	3017	1716	1
2	3021	1720	1
2	3027	1724	1
2	3034	1728	1
2	3041	1732	1
2	3048	1736	1
2	3052	1740	1
2	3058	1744	1
2	3067	1748	1
2	3074	1752	1
2	3081	1756	1
2	3085	1760	1
2	3092	1764	1
2	3101	1768	1
2	3111	1772	1
2	3118	1776	1
2	3122	1780	1
2	3129	1784	1
2	3138	1788	1
2	3147	1792	1
2	3155	1796	1
2	3159	1800	1
2	3167	1804	1
2	3174	1808	1
2	3182	1812	1
2	3191	1816	1
2	3195	1820	1
2	3202	1824	1
2	3210	1828	1
2	3219	1832	1
2	3230	1836	1
2	3234	1840	1
2	3240	1844	1
2	3247	1848	1
2	3254	1852	1
2	3261	1856	1
2	3265	1860	1
2	3271	1864	1
2	3278	1868	1
2	3286	1872	1
2	3294	1876	1
2	3298	1880	1
2	3306	1884	1
2	3313	1888	1
2	3320	1892	1
2	3328	1896	1
2	3332	1900	1
2	3340	1904	1
2	3348	1908	1
2	3357	1912	1
2	3364	1916	1
2	3368	1920	1
2	3374	1924	1
2	3381	1928	1
2	3389	1932	1
2	3399	1936	1
2	3403	1940	1
2	3409	1944	1
2	3416	1948	1
2	3423	1952	1
2	3432	1956	1
2	3436	1960	1
2	3442	1964	1
2	3449	1968	1
2	3456	1972	1
2	3464	1976	1
2	3468	1980	1
2	3475	1984	1
2	3482	1988	1
2	3491	1992	1
2	3498	1996	1
2	3502	2000	1
2	3508	2004	1
2	3515	2008	1
2	3524	2012	1
2	3531	2016	1
2	3535	2020	1
2	3542	2024	1
2	3550	2028	1
2	3558	2032	1
2	3566	2036	1
2	3570	2040	1
2	3577	2044	1
2	3586	2048	1
2	3596	2052	1
2	3603	2056	1
2	3607	2060	1
2	3613	2064	1
2	3620	2068	1
2	3628	2072	1
2	3637	2076	1
2	3641	2080	1
2	3650	2084	1
2	3657	2088	1
2	3664	2092	1
2	3671	2096	1
2	3675	2100	1
2	3682	2104	1
2	3691	2108	1
2	3700	2112	1
2	3709	2116	1
2	3713	2120	1
2	3721	2124	1
2	3730	2128	1
2	3738	2132	1
2	3746	2136	1
2	3750	2140	1
2	3759	2144	1
2	3766	2148	1
2	3773	2152	1
2	3780	2156	1
2	3784	2160	1
2	3792	2164	1
2	3799	2168	1
2	3806	2172	1
2	3813	2176	1
2	3817	2180	1
2	3824	2184	1
2	3832	2188	1
2	3840	2192	1
2	3849	2196	1
2	3853	2200	1
2	3862	2204	1
2	3869	2208	1
2	3877	2212	1
2	3885	2216	1
2	3889	2220	1
2	3896	2224	1
2	3907	2228	1
2	3914	2232	1
2	3921	2236	1
2	3925	2240	1
2	3931	2244	1
2	3938	2248	1
2	3946	2252	1
2	3954	2256	1
2	3958	2260	1
2	3964	2264	1
2	3974	2268	1
2	3981	2272	1
2	3988	2276	1
2	3992	2280	1
2	3999	2284	1
2	4008	2288	1
2	4017	2292	1
2	4026	2296	1
2	4030	2300	1
2	4039	2304	1
2	4046	2308	1
2	4053	2312	1
2	4062	2316	1
2	4066	2320	1
2	4073	2324	1
2	4082	2328	1
2	4091	2332	1
2	4101	2336	1
2	4105	2340	1
2	4111	2344	1
2	4118	2348	1
2	4125	2352	1
2	4132	2356	1
2	4136	2360	1
2	4143	2364	1
2	4152	2368	1
2	4161	2372	1
2	4169	2376	1
2	4173	2380	1
2	4180	2384	1
2	4190	2388	1
2	4197	2392	1
2	4204	2396	1
2	4208	2400	1
2	4215	2404	1
2	4223	2408	1
2	4230	2412	1
2	4239	2416	1
2	4243	2420	1
2	4250	2424	1
2	4259	2428	1
2	4269	2432	1
2	4276	2436	1
2	4280	2440	1
2	4286	2444	1
2	4293	2448	1
2	4301	2452	1
2	4311	2456	1
2	4315	2460	1
2	4321	2464	1
2	4328	2468	1
2	4335	2472	1
2	4343	2476	1
2	4347	2480	1
2	4355	2484	1
2	4365	2488	1
2	4372	2492	1
2	4379	2496	1
2	4383	2500	1
2	4389	2504	1
2	4397	2508	1
2	4406	2512	1
2	4416	2516	1
2	4420	2520	1
2	4427	2524	1
2	4436	2528	1
2	4444	2532	1
2	4451	2536	1
2	4455	2540	1
2	4462	2544	1
2	4472	2548	1
2	4479	2552	1
2	4486	2556	1
2	4490	2560	1
2	4496	2564	1
2	4504	2568	1
2	4514	2572	1
2	4521	2576	1
2	4525	2580	1
2	4531	2584	1
2	4539	2588	1
2	4548	2592	1
2	4558	2596	1
2	4562	2600	1
2	4569	2604	1
2	4578	2608	1
2	4588	2612	1
2	4595	2616	1
2	4599	2620	1
2	4605	2624	1
2	4613	2628	1
2	4622	2632	1
2	4631	2636	1
2	4635	2640	1
2	4644	2644	1
2	4652	2648	1
2	4661	2652	1
2	4670	2656	1
2	4674	2660	1
2	4682	2664	1
2	4691	2668	1
2	4699	2672	1
2	4709	2676	1
2	4713	2680	1
2	4719	2684	1
2	4726	2688	1
2	4733	2692	1
2	4740	2696	1
2	4744	2700	1
2	4751	2704	1
2	4760	2708	1
2	4770	2712	1
2	4778	2716	1
2	4782	2720	1
2	4790	2724	1
2	4798	2728	1
2	4806	2732	1
2	4815	2736	1
2	4819	2740	1
2	4827	2744	1
2	4837	2748	1
2	4844	2752	1
2	4851	2756	1
2	4855	2760	1
2	4862	2764	1
2	4871	2768	1
2	4880	2772	1
2	4888	2776	1
2	4892	2780	1
2	4901	2784	1
2	4908	2788	1
2	4915	2792	1
2	4923	2796	1
2	4927	2800	1
2	4935	2804	1
2	4944	2808	1
2	4952	2812	1
2	4960	2816	1
2	4964	2820	1
2	4971	2824	1
2	4980	2828	1
2	4987	2832	1
2	4994	2836	1
2	4998	2840	1
2	5004	2844	1
2	5011	2848	1
2	5018	2852	1
2	5027	2856	1
2	5031	2860	1
2	5037	2864	1
2	5045	2868	1
2	5054	2872	1
2	5063	2876	1
2	5067	2880	1
2	5075	2884	1
2	5085	2888	1
2	5092	2892	1
2	5099	2896	1
2	5103	2900	1
2	5109	2904	1
2	5116	2908	1
2	5124	2912	1
2	5132	2916	1
2	5136	2920	1
2	5144	2924	1
2	5151	2928	1
2	5158	2932	1
2	5165	2936	1
2	5169	2940	1
2	5175	2944	1
2	5182	2948	1
2	5189	2952	1
2	5196	2956	1
2	5200	2960	1
2	5207	2964	1
2	5216	2968	1
2	5225	2972	1
2	5233	2976	1
2	5237	2980	1
2	5243	2984	1
2	5251	2988	1
2	5260	2992	1
2	5268	2996	1
2	5272	3000	1
2	5279	3004	1
2	5287	3008	1
2	5295	3012	1
2	5304	3016	1
2	5308	3020	1
2	5316	3024	1
2	5326	3028	1
2	5333	3032	1
2	5340	3036	1
2	5344	3040	1
2	5351	3044	1
2	5359	3048	1
2	5367	3052	1
2	5376	3056	1
2	5380	3060	1
2	5389	3064	1
2	5396	3068	1
2	5403	3072	1
2	5410	3076	1
2	5414	3080	1
2	5421	3084	1
2	5429	3088	1
2	5438	3092	1
2	5445	3096	1
2	5449	3100	1
2	5455	3104	1
2	5462	3108	1
2	5469	3112	1
2	5477	3116	1
2	5481	3120	1
2	5489	3124	1
2	5498	3128	1
2	5506	3132	1
2	5515	3136	1
2	5519	3140	1
2	5525	3144	1
2	5532	3148	1
2	5539	3152	1
2	5546	3156	1
2	5550	3160	1
2	5556	3164	1
2	5563	3168	1
2	5571	3172	1
2	5580	3176	1
2	5584	3180	1
2	5592	3184	1
2	5601	3188	1
2	5610	3192	1
2	5619	3196	1
2	5623	3200	1
2	5631	3204	1
2	5639	3208	1
2	5646	3212	1
2	5653	3216	1
2	5657	3220	1
2	5665	3224	1
2	5672	3228	1
2	5679	3232	1
2	5686	3236	1
2	5690	3240	1
2	5697	3244	1
2	5706	3248	1
2	5715	3252	1
2	5723	3256	1
2	5727	3260	1
2	5733	3264	1
2	5740	3268	1
2	5748	3272	1
2	5756	3276	1
2	5760	3280	1
2	5766	3284	1
2	5774	3288	1
2	5782	3292	1
2	5790	3296	1
2	5794	3300	1
2	5802	3304	1
2	5812	3308	1
2	5819	3312	1
2	5826	3316	1
2	5830	3320	1
2	5836	3324	1
2	5844	3328	1
2	5854	3332	1
2	5861	3336	1
2	5865	3340	1
2	5872	3344	1
2	5881	3348	1
2	5890	3352	1
2	5900	3356	1
2	5904	3360	1
2	5910	3364	1
2	5918	3368	1
2	5927	3372	1
2	5938	3376	1
2	5942	3380	1
2	5948	3384	1
2	5955	3388	1
2	5962	3392	1
2	5969	3396	1
2	5973	3400	1
2	5979	3404	1
2	5986	3408	1
2	5994	3412	1
2	6002	3416	1
2	6006	3420	1
2	6013	3424	1
2	6023	3428	1
2	6031	3432	1
2	6040	3436	1
2	6044	3440	1
2	6052	3444	1
2	6061	3448	1
2	6070	3452	1
2	6079	3456	1
2	6083	3460	1
2	6091	3464	1
2	6100	3468	1
2	6109	3472	1
2	6117	3476	1
2	6121	3480	1
2	6128	3484	1
2	6138	3488	1
2	6145	3492	1
2	6152	3496	1
2	6156	3500	1
2	6164	3504	1
2	6171	3508	1
2	6178	3512	1
2	6186	3516	1
2	6190	3520	1
2	6199	3524	1
2	6206	3528	1
2	6213	3532	1
2	6220	3536	1
2	6224	3540	1
2	6230	3544	1
2	6237	3548	1
2	6245	3552	1
2	6255	3556	1
2	6259	3560	1
2	6265	3564	1
2	6272	3568	1
2	6279	3572	1
2	6287	3576	1
2	6291	3580	1
2	6299	3584	1
2	6308	3588	1
2	6316	3592	1
2	6323	3596	1
2	6327	3600	1
3	4	5	0
3	14	10	0
3	21	15	0
3	28	20	0
3	38	25	0
3	45	30	0
3	53	35	1
3	63	40	0
3	74	45	1
3	83	50	1
3	92	55	1
3	100	60	0
3	111	65	1
3	120	70	1
3	130	75	0
3	137	80	0
3	147	85	0
3	157	90	0
3	164	95	0
3	171	100	0
3	182	105	1
3	192	110	0
3	199	115	0
3	206	120	0
3	216	125	0
3	223	130	0
3	230	135	0
3	238	140	1
3	250	145	1
3	260	150	0
3	267	155	0
3	274	160	0
3	284	165	0
3	292	170	1
3	301	175	1
3	309	180	0
3	319	185	0
3	327	190	1
3	335	195	0
3	344	200	0
3	354	205	0
3	361	210	0
3	369	215	1
3	378	220	1
3	389	225	0
3	396	230	0
3	403	235	0
3	410	240	0
3	421	245	1
3	429	250	0
3	436	255	0
3	443	260	0
3	455	265	0
3	462	270	0
3	469	275	0
3	476	280	0
3	486	285	0
3	493	290	0
3	501	295	1
3	509	300	0
3	520	305	1
3	529	310	1
3	538	315	1
3	547	320	1
3	559	325	1
3	567	330	0
3	575	335	1
3	584	340	1
3	596	345	1
3	604	350	0
3	611	355	0
3	618	360	0
3	629	365	1
3	637	370	0
3	644	375	0
3	652	380	1
3	664	385	1
3	673	390	1
3	682	395	1
3	692	400	0
3	702	405	0
3	709	410	0
3	716	415	0
3	723	420	0
3	734	425	1
3	743	430	1
3	752	435	1
3	760	440	0
3	771	445	1
3	781	450	0
3	788	455	0
3	795	460	0
3	805	465	0
3	812	470	0
3	820	475	1
3	828	480	0
3	839	485	1
3	847	490	0
3	855	495	1
3	864	500	1
3	876	505	1
3	885	510	1
3	893	515	0
3	901	520	1
3	913	525	1
3	922	530	1
3	931	535	1
3	940	540	1
3	952	545	1
3	960	550	0
3	967	555	0
3	975	560	1
3	986	565	0
3	994	570	1
3	1002	575	0
3	1010	580	1
3	1021	585	0
3	1029	590	1
3	1037	595	0
3	1044	600	0
3	1055	605	1
3	1063	610	0
3	1070	615	0
3	1078	620	1
3	1090	625	1
3	1099	630	1
3	1107	635	0
3	1114	640	0
3	1124	645	0
3	1132	650	1
3	1140	655	0
3	1148	660	1
3	1160	665	1
3	1168	670	0
3	1176	675	1
3	1184	680	0
3	1196	685	0
3	1203	690	0
3	1210	695	0
3	1218	700	1
3	1229	705	0
3	1237	710	1
3	1246	715	1
3	1254	720	0
3	1265	725	1
3	1273	730	0
3	1280	735	0
3	1288	740	1
3	1299	745	0
3	1307	750	1
3	1316	755	1
3	1325	760	1
3	1336	765	0
3	1344	770	1
3	1353	775	1
3	1362	780	1
3	1374	785	1
3	1383	790	1
3	1392	795	1
3	1401	800	1
3	1413	805	1
3	1421	810	0
3	1429	815	1
3	1438	820	1
3	1450	825	1
3	1459	830	1
3	1468	835	1
3	1477	840	1
3	1488	845	0
3	1496	850	1
3	1504	855	0
3	1512	860	1
3	1524	865	1
3	1532	870	0
3	1539	875	0
3	1546	880	0
3	1557	885	1
3	1566	890	1
3	1575	895	1
3	1584	900	1
3	1597	905	0
3	1604	910	0
3	1611	915	0
3	1618	920	0
3	1628	925	0
3	1637	930	0
3	1644	935	0
3	1651	940	0
3	1661	945	0
3	1668	950	0
3	1676	955	1
3	1686	960	0
3	1696	965	0
3	1703	970	0
3	1710	975	0
3	1718	980	1
3	1729	985	0
3	1737	990	1
3	1746	995	1
3	1754	1000	0
3	1765	1005	1
3	1774	1010	1
3	1783	1015	1
3	1793	1020	0
3	1803	1025	0
3	1810	1030	0
3	1817	1035	0
3	1824	1040	0
3	1834	1045	0
3	1842	1050	1
3	1850	1055	0
3	1858	1060	1
3	1870	1065	1
3	1878	1070	0
3	1885	1075	0
3	1893	1080	1
3	1905	1085	1
3	1915	1090	0
3	1922	1095	0
3	1929	1100	0
3	1940	1105	1
3	1949	1110	1
3	1957	1115	0
3	1965	1120	1
3	1977	1125	1
3	1986	1130	1
3	1995	1135	1
3	2004	1140	1
3	2016	1145	1
3	2025	1150	1
3	2033	1155	0
3	2041	1160	1
3	2053	1165	1
3	2061	1170	0
3	2069	1175	1
3	2078	1180	1
3	2090	1185	1
3	2098	1190	0
3	2106	1195	1
3	2115	1200	1
3	2127	1205	1
3	2136	1210	1
3	2144	1215	0
3	2152	1220	1
3	2163	1225	0
3	2171	1230	1
3	2179	1235	0
3	2186	1240	0
3	2197	1245	1
3	2206	1250	1
3	2214	1255	0
3	2222	1260	1
3	2233	1265	0
3	2241	1270	1
3	2249	1275	0
3	2257	1280	1
3	2269	1285	1
3	2277	1290	0
3	2285	1295	1
3	2294	1300	1
3	2306	1305	1
3	2314	1310	0
3	2321	1315	0
3	2329	1320	1
3	2340	1325	0
3	2347	1330	0
3	2355	1335	1
3	2364	1340	1
3	2376	1345	1
3	2385	1350	1
3	2394	1355	1
3	2402	1360	0
3	2413	1365	1
3	2421	1370	0
3	2428	1375	0
3	2435	1380	0
3	2445	1385	0
3	2453	1390	1
3	2461	1395	0
3	2469	1400	1
3	2480	1405	0
3	2487	1410	0
3	2495	1415	1
3	2503	1420	0
3	2514	1425	1
3	2524	1430	0
3	2531	1435	0
3	2538	1440	0
3	2548	1445	0
3	2555	1450	0
3	2563	1455	1
3	2571	1460	0
3	2581	1465	0
3	2588	1470	0
3	2596	1475	1
3	2605	1480	1
3	2616	1485	0
3	2623	1490	0
3	2630	1495	0
3	2637	1500	0
3	2647	1505	0
3	2655	1510	1
3	2663	1515	0
3	2671	1520	1
3	2682	1525	0
3	2689	1530	0
3	2696	1535	0
3	2703	1540	0
3	2713	1545	0
3	2720	1550	0
3	2728	1555	1
3	2737	1560	1
3	2749	1565	1
3	2758	1570	1
3	2766	1575	0
3	2774	1580	1
3	2785	1585	0
3	2793	1590	1
3	2802	1595	1
3	2811	1600	1
3	2822	1605	0
3	2829	1610	0
3	2836	1615	0
3	2844	1620	1
3	2855	1625	0
3	2863	1630	1
3	2873	1635	0
3	2880	1640	0
3	2890	1645	0
3	2897	1650	0
3	2904	1655	0
3	2912	1660	1
3	2925	1665	0
3	2932	1670	0
3	2940	1675	1
3	2948	1680	0
3	2959	1685	1
3	2969	1690	0
3	2977	1695	1
3	2985	1700	0
3	2995	1705	0
3	3004	1710	0
3	3011	1715	0
3	3018	1720	0
3	3028	1725	0
3	3035	1730	0
3	3042	1735	0
3	3049	1740	0
3	3059	1745	0
3	3068	1750	0
3	3075	1755	0
3	3082	1760	0
3	3093	1765	1
3	3102	1770	1
3	3112	1775	0
3	3119	1780	0
3	3130	1785	1
3	3139	1790	1
3	3148	1795	1
3	3156	1800	0
3	3168	1805	0
3	3175	1810	0
3	3183	1815	1
3	3192	1820	1
3	3203	1825	0
3	3211	1830	1
3	3220	1835	1
3	3231	1840	0
3	3241	1845	0
3	3248	1850	0
3	3255	1855	0
3	3262	1860	0
3	3272	1865	0
3	3279	1870	0
3	3287	1875	1
3	3295	1880	0
3	3307	1885	0
3	3314	1890	0
3	3321	1895	0
3	3329	1900	1
3	3341	1905	1
3	3349	1910	0
3	3358	1915	0
3	3365	1920	0
3	3375	1925	0
3	3382	1930	0
3	3390	1935	1
3	3400	1940	0
3	3410	1945	0
3	3417	1950	0
3	3424	1955	0
3	3433	1960	0
3	3443	1965	0
3	3450	1970	0
3	3457	1975	0
3	3465	1980	1
3	3476	1985	0
3	3483	1990	0
3	3492	1995	0
3	3499	2000	0
3	3509	2005	0
3	3516	2010	0
3	3525	2015	0
3	3532	2020	0
3	3543	2025	1
3	3551	2030	0
3	3559	2035	1
3	3567	2040	0
3	3578	2045	1
3	3587	2050	1
3	3597	2055	0
3	3604	2060	0
3	3614	2065	0
3	3621	2070	0
3	3629	2075	1
3	3638	2080	1
3	3651	2085	0
3	3658	2090	0
3	3665	2095	0
3	3672	2100	0
3	3683	2105	1
3	3692	2110	1
3	3701	2115	1
3	3710	2120	1
3	3722	2125	1
3	3731	2130	1
3	3739	2135	0
3	3747	2140	1
3	3760	2145	0
3	3767	2150	0
3	3774	2155	0
3	3781	2160	0
3	3793	2165	0
3	3800	2170	0
3	3807	2175	0
3	3814	2180	0
3	3825	2185	1
3	3833	2190	0
3	3841	2195	1
3	3850	2200	1
3	3863	2205	0
3	3870	2210	0
3	3878	2215	1
3	3886	2220	0
3	3897	2225	1
3	3908	2230	0
3	3915	2235	0
3	3922	2240	0
3	3932	2245	0
3	3939	2250	0
3	3947	2255	1
3	3955	2260	0
3	3965	2265	0
3	3975	2270	0
3	3982	2275	0
3	3989	2280	0
3	4000	2285	1
3	4009	2290	1
3	4018	2295	1
3	4027	2300	1
3	4040	2305	0
3	4047	2310	0
3	4054	2315	0
3	4063	2320	0
3	4074	2325	1
3	4083	2330	1
3	4092	2335	1
3	4102	2340	0
3	4112	2345	0
3	4119	2350	0
3	4126	2355	0
3	4133	2360	0
3	4144	2365	1
3	4153	2370	1
3	4162	2375	1
3	4170	2380	0
3	4181	2385	1
3	4191	2390	0
3	4198	2395	0
3	4205	2400	0
3	4216	2405	1
3	4224	2410	0
3	4231	2415	0
3	4240	2420	0
3	4251	2425	1
3	4260	2430	1
3	4270	2435	0
3	4277	2440	0
3	4287	2445	0
3	4294	2450	0
3	4302	2455	1
3	4312	2460	0
3	4322	2465	0
3	4329	2470	0
3	4336	2475	0
3	4344	2480	1
3	4356	2485	1
3	4366	2490	0
3	4373	2495	0
3	4380	2500	0
3	4390	2505	0
3	4398	2510	1
3	4407	2515	1
3	4417	2520	0
3	4428	2525	1
3	4437	2530	1
3	4445	2535	0
3	4452	2540	0
3	4463	2545	1
3	4473	2550	0
3	4480	2555	0
3	4487	2560	0
3	4497	2565	0
3	4505	2570	1
3	4515	2575	0
3	4522	2580	0
3	4532	2585	0
3	4540	2590	1
3	4549	2595	1
3	4559	2600	0
3	4570	2605	1
3	4579	2610	1
3	4589	2615	0
3	4596	2620	0
3	4606	2625	0
3	4614	2630	1
3	4623	2635	1
3	4632	2640	1
3	4645	2645	0
3	4653	2650	1
3	4662	2655	1
3	4671	2660	1
3	4683	2665	1
3	4692	2670	1
3	4700	2675	0
3	4710	2680	0
3	4720	2685	0
3	4727	2690	0
3	4734	2695	0
3	4741	2700	0
3	4752	2705	1
3	4761	2710	1
3	4771	2715	0
3	4779	2720	1
3	4791	2725	1
3	4799	2730	0
3	4807	2735	1
3	4816	2740	1
3	4828	2745	1
3	4838	2750	0
3	4845	2755	0
3	4852	2760	0
3	4863	2765	1
3	4872	2770	1
3	4881	2775	1
3	4889	2780	0
3	4902	2785	0
3	4909	2790	0
3	4916	2795	0
3	4924	2800	1
3	4936	2805	1
3	4945	2810	1
3	4953	2815	0
3	4961	2820	1
3	4972	2825	0
3	4981	2830	0
3	4988	2835	0
3	4995	2840	0
3	5005	2845	0
3	5012	2850	0
3	5019	2855	0
3	5028	2860	0
3	5038	2865	0
3	5046	2870	1
3	5055	2875	1
3	5064	2880	1
3	5076	2885	1
3	5086	2890	0
3	5093	2895	0
3	5100	2900	0
3	5110	2905	0
3	5117	2910	0
3	5125	2915	1
3	5133	2920	0
3	5145	2925	0
3	5152	2930	0
3	5159	2935	0
3	5166	2940	0
3	5176	2945	0
3	5183	2950	0
3	5190	2955	0
3	5197	2960	0
3	5208	2965	1
3	5217	2970	1
3	5226	2975	1
3	5234	2980	0
3	5244	2985	0
3	5252	2990	1
3	5261	2995	1
3	5269	3000	0
3	5280	3005	1
3	5288	3010	0
3	5296	3015	1
3	5305	3020	1
3	5317	3025	1
3	5327	3030	0
3	5334	3035	0
3	5341	3040	0
3	5352	3045	1
3	5360	3050	0
3	5368	3055	1
3	5377	3060	1
3	5390	3065	0
3	5397	3070	0
3	5404	3075	0
3	5411	3080	0
3	5422	3085	1
3	5430	3090	0
3	5439	3095	0
3	5446	3100	0
3	5456	3105	0
3	5463	3110	0
3	5470	3115	0
3	5478	3120	1
3	5490	3125	1
3	5499	3130	1
3	5507	3135	0
3	5516	3140	0
3	5526	3145	0
3	5533	3150	0
3	5540	3155	0
3	5547	3160	0
3	5557	3165	0
3	5564	3170	0
3	5572	3175	1
3	5581	3180	1
3	5593	3185	1
3	5602	3190	1
3	5611	3195	1
3	5620	3200	1
3	5632	3205	1
3	5640	3210	0
3	5647	3215	0
3	5654	3220	0
3	5666	3225	0
3	5673	3230	0
3	5680	3235	0
3	5687	3240	0
3	5698	3245	1
3	5707	3250	1
3	5716	3255	1
3	5724	3260	0
3	5734	3265	0
3	5741	3270	0
3	5749	3275	1
3	5757	3280	0
3	5767	3285	0
3	5775	3290	1
3	5783	3295	0
3	5791	3300	1
3	5803	3305	1
3	5813	3310	0
3	5820	3315	0
3	5827	3320	0
3	5837	3325	0
3	5845	3330	1
3	5855	3335	0
3	5862	3340	0
3	5873	3345	1
3	5882	3350	1
3	5891	3355	1
3	5901	3360	0
3	5911	3365	0
3	5919	3370	1
3	5928	3375	1
3	5939	3380	0
3	5949	3385	0
3	5956	3390	0
3	5963	3395	0
3	5970	3400	0
3	5980	3405	0
3	5987	3410	0
3	5995	3415	1
3	6003	3420	0
3	6014	3425	1
3	6024	3430	0
3	6032	3435	1
3	6041	3440	1
3	6053	3445	1
3	6062	3450	1
3	6071	3455	1
3	6080	3460	1
3	6092	3465	1
3	6101	3470	1
3	6110	3475	1
3	6118	3480	0
3	6129	3485	1
3	6139	3490	0
3	6146	3495	0
3	6153	3500	0
3	6165	3505	0
3	6172	3510	0
3	6179	3515	0
3	6187	3520	1
3	6200	3525	0
3	6207	3530	0
3	6214	3535	0
3	6221	3540	0
3	6231	3545	0
3	6238	3550	0
3	6246	3555	1
3	6256	3560	0
3	6266	3565	0
3	6273	3570	0
3	6280	3575	0
3	6288	3580	1
3	6300	3585	1
3	6309	3590	1
3	6317	3595	0
3	6324	3600	0
4	35	24	1
4	42	28	1
4	50	32	1
4	64	40	1
4	71	44	1
4	80	48	1
4	89	52	1
4	97	56	1
4	101	60	1
4	108	64	1
4	134	76	1
4	138	80	1
4	144	84	1
4	154	88	1
4	161	92	1
4	168	96	1
4	172	100	1
4	179	104	1
4	189	108	1
4	196	112	1
4	203	116	1
4	207	120	1
4	213	124	1
4	220	128	1
4	227	132	1
4	235	136	1
4	239	140	1
4	247	144	1
4	257	148	1
4	264	152	1
4	271	156	1
4	275	160	1
4	281	164	1
4	289	168	1
4	298	172	1
4	306	176	1
4	310	180	1
4	316	184	1
4	324	188	1
4	332	192	1
4	341	196	1
4	345	200	1
4	351	204	1
4	358	208	1
4	366	212	1
4	375	216	1
4	379	220	1
4	386	224	1
4	393	228	1
4	400	232	1
4	407	236	1
4	411	240	1
4	418	244	1
4	426	248	1
4	433	252	1
4	440	256	1
4	444	260	1
4	452	264	1
4	459	268	1
4	466	272	1
4	473	276	1
4	477	280	1
4	483	284	1
4	490	288	1
4	498	292	1
4	506	296	1
4	510	300	1
4	517	304	1
4	526	308	1
4	535	312	1
4	544	316	1
4	548	320	1
4	556	324	1
4	564	328	1
4	572	332	1
4	581	336	1
4	585	340	1
4	593	344	1
4	601	348	1
4	608	352	1
4	615	356	1
4	619	360	1
4	626	364	1
4	634	368	1
4	641	372	1
4	649	376	1
4	653	380	1
4	661	384	1
4	670	388	1
4	679	392	1
4	689	396	1
4	693	400	1
4	699	404	1
4	706	408	1
4	713	412	1
4	720	416	1
4	724	420	1
4	731	424	1
4	740	428	1
4	749	432	1
4	757	436	1
4	761	440	1
4	768	444	1
4	778	448	1
4	785	452	1
4	792	456	1
4	796	460	1
4	802	464	1
4	809	468	1
4	817	472	1
4	825	476	1
4	829	480	1
4	836	484	1
4	844	488	1
4	852	492	1
4	861	496	1
4	865	500	1
4	873	504	1
4	882	508	1
4	890	512	1
4	898	516	1
4	902	520	1
4	910	524	1
4	919	528	1
4	928	532	1
4	937	536	1
4	941	540	1
4	949	544	1
4	957	548	1
4	964	552	1
4	972	556	1
4	976	560	1
4	983	564	1
4	991	568	1
4	999	572	1
4	1007	576	1
4	1011	580	1
4	1018	584	1
4	1026	588	1
4	1034	592	1
4	1041	596	1
4	1045	600	1
4	1052	604	1
4	1060	608	1
4	1067	612	1
4	1075	616	1
4	1079	620	1
4	1087	624	1
4	1096	628	1
4	1104	632	1
4	1111	636	1
4	1115	640	1
4	1121	644	1
4	1129	648	1
4	1137	652	1
4	1145	656	1
4	1149	660	1
4	1157	664	1
4	1165	668	1
4	1173	672	1
4	1181	676	1
4	1185	680	1
4	1193	684	1
4	1200	688	1
4	1207	692	1
4	1215	696	1
4	1219	700	1
4	1226	704	1
4	1234	708	1
4	1243	712	1
4	1251	716	1
4	1255	720	1
4	1262	724	1
4	1270	728	1
4	1277	732	1
4	1285	736	1
4	1289	740	1
4	1296	744	1
4	1304	748	1
4	1313	752	1
4	1322	756	1
4	1326	760	1
4	1333	764	1
4	1341	768	1
4	1350	772	1
4	1359	776	1
4	1363	780	1
4	1371	784	1
4	1380	788	1
4	1389	792	1
4	1398	796	1
4	1402	800	1
4	1410	804	1
4	1418	808	1
4	1426	812	1
4	1435	816	1
4	1439	820	1
4	1447	824	1
4	1456	828	1
4	1465	832	1
4	1474	836	1
4	1478	840	1
4	1485	844	1
4	1493	848	1
4	1501	852	1
4	1509	856	1
4	1513	860	1
4	1521	864	1
4	1529	868	1
4	1536	872	1
4	1543	876	1
4	1547	880	1
4	1554	884	1
4	1563	888	1
4	1572	892	1
4	1585	900	1
4	1601	908	1
4	1608	912	1
4	1615	916	1
4	1619	920	1
4	1625	924	1
4	1634	928	1
4	1641	932	1
4	1648	936	1
4	1652	940	1
4	1658	944	1
4	1665	948	1
4	1673	952	1
4	1683	956	1
4	1687	960	1
4	1693	964	1
4	1700	968	1
4	1707	972	1
4	1715	976	1
4	1719	980	1
4	1726	984	1
4	1734	988	1
4	1743	992	1
4	1751	996	1
4	1755	1000	1
4	1762	1004	1
4	1771	1008	1
4	1780	1012	1
4	1790	1016	1
4	1794	1020	1
4	1800	1024	1
4	1807	1028	1
4	1814	1032	1
4	1821	1036	1
4	1825	1040	1
4	1831	1044	1
4	1839	1048	1
4	1847	1052	1
4	1855	1056	1
4	1859	1060	1
4	1867	1064	1
4	1875	1068	1
4	1882	1072	1
4	1890	1076	1
4	1894	1080	1
4	1902	1084	1
4	1912	1088	1
4	1919	1092	1
4	1926	1096	1
4	1930	1100	1
4	1937	1104	1
4	1946	1108	1
4	1954	1112	1
4	1962	1116	1
4	1966	1120	1
4	1974	1124	1
4	1983	1128	1
4	1992	1132	1
4	2001	1136	1
4	2005	1140	1
4	2013	1144	1
4	2022	1148	1
4	2030	1152	1
4	2038	1156	1
4	2042	1160	1
4	2050	1164	1
4	2058	1168	1
4	2066	1172	1
4	2075	1176	1
4	2079	1180	1
4	2087	1184	1
4	2095	1188	1
4	2103	1192	1
4	2112	1196	1
4	2116	1200	1
4	2124	1204	1
4	2133	1208	1
4	2141	1212	1
4	2149	1216	1
4	2153	1220	1
4	2160	1224	1
4	2168	1228	1
4	2176	1232	1
4	2183	1236	1
4	2187	1240	1
4	2194	1244	1
4	2203	1248	1
4	2211	1252	1
4	2219	1256	1
4	2223	1260	1
4	2230	1264	1
4	2238	1268	1
4	2246	1272	1
4	2254	1276	1
4	2258	1280	1
4	2266	1284	1
4	2274	1288	1
4	2282	1292	1
4	2291	1296	1
4	2295	1300	1
4	2303	1304	1
4	2311	1308	1
4	2318	1312	1
4	2326	1316	1
4	2330	1320	1
4	2337	1324	1
4	2344	1328	1
4	2352	1332	1
4	2361	1336	1
4	2365	1340	1
4	2373	1344	1
4	2382	1348	1
4	2391	1352	1
4	2399	1356	1
4	2403	1360	1
4	2410	1364	1
4	2418	1368	1
4	2425	1372	1
4	2432	1376	1
4	2436	1380	1
4	2442	1384	1
4	2450	1388	1
4	2458	1392	1
4	2466	1396	1
4	2470	1400	1
4	2477	1404	1
4	2484	1408	1
4	2492	1412	1
4	2500	1416	1
4	2504	1420	1
4	2511	1424	1
4	2521	1428	1
4	2528	1432	1
4	2535	1436	1
4	2539	1440	1
4	2545	1444	1
4	2552	1448	1
4	2560	1452	1
4	2568	1456	1
4	2572	1460	1
4	2578	1464	1
4	2585	1468	1
4	2593	1472	1
4	2602	1476	1
4	2606	1480	1
4	2613	1484	1
4	2620	1488	1
4	2627	1492	1
4	2634	1496	1
4	2638	1500	1
4	2644	1504	1
4	2652	1508	1
4	2660	1512	1
4	2668	1516	1
4	2672	1520	1
4	2679	1524	1
4	2686	1528	1
4	2693	1532	1
4	2700	1536	1
4	2704	1540	1
4	2710	1544	1
4	2717	1548	1
4	2725	1552	1
4	2734	1556	1
4	2738	1560	1
4	2746	1564	1
4	2755	1568	1
4	2763	1572	1
4	2771	1576	1
4	2775	1580	1
4	2782	1584	1
4	2790	1588	1
4	2799	1592	1
4	2808	1596	1
4	2812	1600	1
4	2819	1604	1
4	2826	1608	1
4	2833	1612	1
4	2841	1616	1
4	2845	1620	1
4	2852	1624	1
4	2860	1628	1
4	2870	1632	1
4	2877	1636	1
4	2881	1640	1
4	2887	1644	1
4	2894	1648	1
4	2901	1652	1
4	2909	1656	1
4	2913	1660	1
4	2929	1668	1
4	2937	1672	1
4	2949	1680	1
4	2956	1684	1
4	2974	1692	1
4	2982	1696	1
4	2986	1700	1
4	2992	1704	1
4	3001	1708	1
4	3008	1712	1
4	3015	1716	1
4	3019	1720	1
4	3025	1724	1
4	3032	1728	1
4	3039	1732	1
4	3046	1736	1
4	3050	1740	1
4	3056	1744	1
4	3065	1748	1
4	3072	1752	1
4	3079	1756	1
4	3083	1760	1
4	3090	1764	1
4	3099	1768	1
4	3109	1772	1
4	3116	1776	1
4	3120	1780	1
4	3127	1784	1
4	3136	1788	1
4	3145	1792	1
4	3153	1796	1
4	3157	1800	1
4	3165	1804	1
4	3172	1808	1
4	3180	1812	1
4	3193	1820	1
4	3208	1828	1
4	3232	1840	1
4	3238	1844	1
4	3245	1848	1
4	3252	1852	1
4	3259	1856	1
4	3263	1860	1
4	3269	1864	1
4	3276	1868	1
4	3284	1872	1
4	3296	1880	1
4	3304	1884	1
4	3311	1888	1
4	3318	1892	1
4	3326	1896	1
4	3330	1900	1
4	3338	1904	1
4	3346	1908	1
4	3355	1912	1
4	3362	1916	1
4	3366	1920	1
4	3372	1924	1
4	3379	1928	1
4	3387	1932	1
4	3397	1936	1
4	3401	1940	1
4	3407	1944	1
4	3414	1948	1
4	3421	1952	1
4	3430	1956	1
4	3434	1960	1
4	3440	1964	1
4	3447	1968	1
4	3454	1972	1
4	3462	1976	1
4	3466	1980	1
4	3473	1984	1
4	3480	1988	1
4	3489	1992	1
4	3496	1996	1
4	3500	2000	1
4	3506	2004	1
4	3513	2008	1
4	3522	2012	1
4	3529	2016	1
4	3533	2020	1
4	3540	2024	1
4	3548	2028	1
4	3556	2032	1
4	3564	2036	1
4	3568	2040	1
4	3575	2044	1
4	3584	2048	1
4	3594	2052	1
4	3601	2056	1
4	3605	2060	1
4	3611	2064	1
4	3618	2068	1
4	3626	2072	1
4	3635	2076	1
4	3639	2080	1
4	3648	2084	1
4	3655	2088	1
4	3662	2092	1
4	3669	2096	1
4	3673	2100	1
4	3680	2104	1
4	3689	2108	1
4	3698	2112	1
4	3707	2116	1
4	3711	2120	1
4	3719	2124	1
4	3728	2128	1
4	3736	2132	1
4	3744	2136	1
4	3748	2140	1
4	3757	2144	1
4	3764	2148	1
4	3771	2152	1
4	3778	2156	1
4	3782	2160	1
4	3790	2164	1
4	3797	2168	1
4	3804	2172	1
4	3811	2176	1
4	3815	2180	1
4	3822	2184	1
4	3830	2188	1
4	3838	2192	1
4	3851	2200	1
4	3867	2208	1
4	3875	2212	1
4	3883	2216	1
4	3887	2220	1
4	3894	2224	1
4	3905	2228	1
4	3912	2232	1
4	3919	2236	1
4	3923	2240	1
4	3929	2244	1
4	3936	2248	1
4	3944	2252	1
4	3952	2256	1
4	3956	2260	1
4	3962	2264	1
4	3972	2268	1
4	3979	2272	1
4	3986	2276	1
4	3990	2280	1
4	3997	2284	1
4	4006	2288	1
4	4015	2292	1
4	4028	2300	1
4	4044	2308	1
4	4051	2312	1
4	4060	2316	1
4	4064	2320	1
4	4071	2324	1
4	4103	2340	1
4	4109	2344	1
4	4116	2348	1
4	4123	2352	1
4	4130	2356	1
4	4134	2360	1
4	4141	2364	1
4	4171	2380	1
4	4178	2384	1
4	4188	2388	1
4	4195	2392	1
4	4202	2396	1
4	4206	2400	1
4	4213	2404	1
4	4221	2408	1
4	4228	2412	1
4	4237	2416	1
4	4241	2420	1
4	4248	2424	1
4	4257	2428	1
4	4267	2432	1
4	4274	2436	1
4	4278	2440	1
4	4284	2444	1
4	4291	2448	1
4	4299	2452	1
4	4313	2460	1
4	4319	2464	1
4	4326	2468	1
4	4333	2472	1
4	4341	2476	1
4	4345	2480	1
4	4353	2484	1
4	4363	2488	1
4	4370	2492	1
4	4377	2496	1
4	4381	2500	1
4	4387	2504	1
4	4395	2508	1
4	4414	2516	1
4	4418	2520	1
4	4425	2524	1
4	4449	2536	1
4	4453	2540	1
4	4460	2544	1
4	4470	2548	1
4	4477	2552	1
4	4484	2556	1
4	4488	2560	1
4	4494	2564	1
4	4502	2568	1
4	4512	2572	1
4	4519	2576	1
4	4523	2580	1
4	4529	2584	1
4	4537	2588	1
4	4546	2592	1
4	4560	2600	1
4	4567	2604	1
4	4576	2608	1
4	4586	2612	1
4	4593	2616	1
4	4597	2620	1
4	4603	2624	1
4	4611	2628	1
4	4633	2640	1
4	4642	2644	1
4	4650	2648	1
4	4659	2652	1
4	4668	2656	1
4	4672	2660	1
4	4680	2664	1
4	4689	2668	1
4	4707	2676	1
4	4711	2680	1
4	4717	2684	1
4	4724	2688	1
4	4731	2692	1
4	4738	2696	1
4	4742	2700	1
4	4749	2704	1
4	4758	2708	1
4	4776	2716	1
4	4780	2720	1
4	4804	2732	1
4	4817	2740	1
4	4825	2744	1
4	4835	2748	1
4	4842	2752	1
4	4849	2756	1
4	4853	2760	1
4	4860	2764	1
4	4890	2780	1
4	4899	2784	1
4	4906	2788	1
4	4913	2792	1
4	4921	2796	1
4	4925	2800	1
4	4958	2816	1
4	4962	2820	1
4	4978	2828	1
4	4985	2832	1
4	4992	2836	1
4	4996	2840	1
4	5002	2844	1
4	5009	2848	1
4	5016	2852	1
4	5025	2856	1
4	5029	2860	1
4	5035	2864	1
4	5043	2868	1
4	5052	2872	1
4	5061	2876	1
4	5065	2880	1
4	5073	2884	1
4	5083	2888	1
4	5090	2892	1
4	5097	2896	1
4	5101	2900	1
4	5107	2904	1
4	5114	2908	1
4	5122	2912	1
4	5130	2916	1
4	5134	2920	1
4	5142	2924	1
4	5149	2928	1
4	5156	2932	1
4	5163	2936	1
4	5167	2940	1
4	5173	2944	1
4	5180	2948	1
4	5187	2952	1
4	5194	2956	1
4	5198	2960	1
4	5205	2964	1
4	5214	2968	1
4	5235	2980	1
4	5241	2984	1
4	5249	2988	1
4	5270	3000	1
4	5277	3004	1
4	5293	3012	1
4	5302	3016	1
4	5306	3020	1
4	5324	3028	1
4	5331	3032	1
4	5338	3036	1
4	5342	3040	1
4	5349	3044	1
4	5357	3048	1
4	5365	3052	1
4	5374	3056	1
4	5378	3060	1
4	5387	3064	1
4	5394	3068	1
4	5401	3072	1
4	5408	3076	1
4	5412	3080	1
4	5419	3084	1
4	5436	3092	1
4	5443	3096	1
4	5447	3100	1
4	5453	3104	1
4	5460	3108	1
4	5467	3112	1
4	5475	3116	1
4	5479	3120	1
4	5513	3136	1
4	5517	3140	1
4	5523	3144	1
4	5530	3148	1
4	5537	3152	1
4	5544	3156	1
4	5548	3160	1
4	5554	3164	1
4	5561	3168	1
4	5569	3172	1
4	5582	3180	1
4	5621	3200	1
4	5644	3212	1
4	5651	3216	1
4	5655	3220	1
4	5663	3224	1
4	5670	3228	1
4	5677	3232	1
4	5684	3236	1
4	5688	3240	1
4	5695	3244	1
4	5725	3260	1
4	5731	3264	1
4	5738	3268	1
4	5746	3272	1
4	5758	3280	1
4	5764	3284	1
4	5772	3288	1
4	5780	3292	1
4	5788	3296	1
4	5792	3300	1
4	5810	3308	1
4	5817	3312	1
4	5824	3316	1
4	5828	3320	1
4	5834	3324	1
4	5842	3328	1
4	5852	3332	1
4	5859	3336	1
4	5863	3340	1
4	5870	3344	1
4	5879	3348	1
4	5888	3352	1
4	5898	3356	1
4	5902	3360	1
4	5908	3364	1
4	5916	3368	1
4	5940	3380	1
4	5946	3384	1
4	5953	3388	1
4	5960	3392	1
4	5967	3396	1
4	5971	3400	1
4	5977	3404	1
4	5984	3408	1
4	5992	3412	1
4	6004	3420	1
4	6011	3424	1
4	6029	3432	1
4	6038	3436	1
4	6042	3440	1
4	6050	3444	1
4	6081	3460	1
4	6119	3480	1
4	6126	3484	1
4	6136	3488	1
4	6143	3492	1
4	6150	3496	1
4	6154	3500	1
4	6162	3504	1
4	6169	3508	1
4	6176	3512	1
4	6184	3516	1
4	6188	3520	1
4	6197	3524	1
4	6204	3528	1
4	6211	3532	1
4	6218	3536	1
4	6222	3540	1
4	6228	3544	1
4	6235	3548	1
4	6243	3552	1
4	6253	3556	1
4	6257	3560	1
4	6263	3564	1
4	6270	3568	1
4	6277	3572	1
4	6285	3576	1
4	6289	3580	1
4	6297	3584	1
4	6306	3588	1
4	6314	3592	1
4	6321	3596	1
4	6325	3600	1
5	36	24	1
5	43	28	1
5	51	32	1
5	61	36	1
5	65	40	1
5	72	44	1
5	102	60	1
5	109	64	1
5	118	68	1
5	128	72	1
5	135	76	1
5	139	80	1
5	145	84	1
5	155	88	1
5	162	92	1
5	169	96	1
5	173	100	1
5	180	104	1
5	197	112	1
5	204	116	1
5	208	120	1
5	214	124	1
5	221	128	1
5	228	132	1
5	236	136	1
5	240	140	1
5	265	152	1
5	272	156	1
5	276	160	1
5	282	164	1
5	290	168	1
5	311	180	1
5	317	184	1
5	325	188	1
5	342	196	1
5	346	200	1
5	352	204	1
5	359	208	1
5	367	212	1
5	380	220	1
5	394	228	1
5	401	232	1
5	408	236	1
5	412	240	1
5	419	244	1
5	434	252	1
5	441	256	1
5	445	260	1
5	453	264	1
5	460	268	1
5	467	272	1
5	474	276	1
5	478	280	1
5	484	284	1
5	491	288	1
5	499	292	1
5	511	300	1
5	518	304	1
5	549	320	1
5	573	332	1
5	586	340	1
5	609	352	1
5	616	356	1
5	620	360	1
5	627	364	1
5	642	372	1
5	650	376	1
5	654	380	1
5	694	400	1
5	700	404	1
5	707	408	1
5	714	412	1
5	721	416	1
5	725	420	1
5	732	424	1
5	762	440	1
5	769	444	1
5	786	452	1
5	793	456	1
5	797	460	1
5	803	464	1
5	810	468	1
5	818	472	1
5	830	480	1
5	837	484	1
5	853	492	1
5	866	500	1
5	899	516	1
5	903	520	1
5	942	540	1
5	965	552	1
5	973	556	1
5	977	560	1
5	992	568	1
5	1008	576	1
5	1012	580	1
5	1027	588	1
5	1042	596	1
5	1046	600	1
5	1053	604	1
5	1068	612	1
5	1076	616	1
5	1080	620	1
5	1112	636	1
5	1116	640	1
5	1122	644	1
5	1130	648	1
5	1146	656	1
5	1150	660	1
5	1174	672	1
5	1186	680	1
5	1194	684	1
5	1201	688	1
5	1208	692	1
5	1216	696	1
5	1220	700	1
5	1235	708	1
5	1256	720	1
5	1263	724	1
5	1278	732	1
5	1286	736	1
5	1290	740	1
5	1305	748	1
5	1327	760	1
5	1342	768	1
5	1364	780	1
5	1403	800	1
5	1427	812	1
5	1440	820	1
5	1479	840	1
5	1494	848	1
5	1510	856	1
5	1514	860	1
5	1537	872	1
5	1544	876	1
5	1548	880	1
5	1555	884	1
5	1582	896	1
5	1586	900	1
5	1595	904	1
5	1602	908	1
5	1609	912	1
5	1616	916	1
5	1620	920	1
5	1626	924	1
5	1635	928	1
5	1642	932	1
5	1649	936	1
5	1653	940	1
5	1659	944	1
5	1666	948	1
5	1674	952	1
5	1688	960	1
5	1694	964	1
5	1701	968	1
5	1708	972	1
5	1716	976	1
5	1720	980	1
5	1735	988	1
5	1756	1000	1
5	1763	1004	1
5	1795	1020	1
5	1801	1024	1
5	1808	1028	1
5	1815	1032	1
5	1822	1036	1
5	1826	1040	1
5	1832	1044	1
5	1840	1048	1
5	1856	1056	1
5	1860	1060	1
5	1883	1072	1
5	1891	1076	1
5	1895	1080	1
5	1920	1092	1
5	1927	1096	1
5	1931	1100	1
5	1938	1104	1
5	1963	1116	1
5	1967	1120	1
5	2006	1140	1
5	2039	1156	1
5	2043	1160	1
5	2067	1172	1
5	2080	1180	1
5	2104	1192	1
5	2117	1200	1
5	2150	1216	1
5	2154	1220	1
5	2169	1228	1
5	2184	1236	1
5	2188	1240	1
5	2195	1244	1
5	2220	1256	1
5	2224	1260	1
5	2239	1268	1
5	2255	1276	1
5	2259	1280	1
5	2283	1292	1
5	2296	1300	1
5	2319	1312	1
5	2327	1316	1
5	2331	1320	1
5	2345	1328	1
5	2353	1332	1
5	2366	1340	1
5	2404	1360	1
5	2411	1364	1
5	2426	1372	1
5	2433	1376	1
5	2437	1380	1
5	2443	1384	1
5	2451	1388	1
5	2467	1396	1
5	2471	1400	1
5	2485	1408	1
5	2493	1412	1
5	2505	1420	1
5	2512	1424	1
5	2529	1432	1
5	2536	1436	1
5	2540	1440	1
5	2546	1444	1
5	2553	1448	1
5	2561	1452	1
5	2573	1460	1
5	2579	1464	1
5	2586	1468	1
5	2594	1472	1
5	2607	1480	1
5	2621	1488	1
5	2628	1492	1
5	2635	1496	1
5	2639	1500	1
5	2645	1504	1
5	2653	1508	1
5	2669	1516	1
5	2673	1520	1
5	2687	1528	1
5	2694	1532	1
5	2701	1536	1
5	2705	1540	1
5	2711	1544	1
5	2718	1548	1
5	2726	1552	1
5	2739	1560	1
5	2772	1576	1
5	2776	1580	1
5	2791	1588	1
5	2813	1600	1
5	2827	1608	1
5	2834	1612	1
5	2842	1616	1
5	2846	1620	1
5	2861	1628	1
5	2871	1632	1
5	2878	1636	1
5	2882	1640	1
5	2888	1644	1
5	2895	1648	1
5	2902	1652	1
5	2910	1656	1
5	2914	1660	1
5	2923	1664	1
5	2930	1668	1
5	2938	1672	1
5	2946	1676	1
5	2950	1680	1
5	2957	1684	1
5	2967	1688	1
5	2975	1692	1
5	2983	1696	1
5	2987	1700	1
5	2993	1704	1
5	3002	1708	1
5	3009	1712	1
5	3016	1716	1
5	3020	1720	1
5	3026	1724	1
5	3033	1728	1
5	3040	1732	1
5	3047	1736	1
5	3051	1740	1
5	3057	1744	1
5	3066	1748	1
5	3073	1752	1
5	3080	1756	1
5	3084	1760	1
5	3091	1764	1
5	3117	1776	1
5	3121	1780	1
5	3128	1784	1
5	3137	1788	1
5	3146	1792	1
5	3154	1796	1
5	3158	1800	1
5	3166	1804	1
5	3173	1808	1
5	3181	1812	1
5	3190	1816	1
5	3194	1820	1
5	3201	1824	1
5	3209	1828	1
5	3218	1832	1
5	3229	1836	1
5	3233	1840	1
5	3239	1844	1
5	3246	1848	1
5	3253	1852	1
5	3260	1856	1
5	3264	1860	1
5	3270	1864	1
5	3277	1868	1
5	3285	1872	1
5	3293	1876	1
5	3297	1880	1
5	3305	1884	1
5	3312	1888	1
5	3319	1892	1
5	3327	1896	1
5	3331	1900	1
5	3356	1912	1
5	3363	1916	1
5	3367	1920	1
5	3373	1924	1
5	3380	1928	1
5	3388	1932	1
5	3402	1940	1
5	3408	1944	1
5	3415	1948	1
5	3422	1952	1
5	3431	1956	1
5	3435	1960	1
5	3441	1964	1
5	3448	1968	1
5	3455	1972	1
5	3463	1976	1
5	3467	1980	1
5	3474	1984	1
5	3481	1988	1
5	3490	1992	1
5	3497	1996	1
5	3501	2000	1
5	3507	2004	1
5	3514	2008	1
5	3523	2012	1
5	3530	2016	1
5	3534	2020	1
5	3541	2024	1
5	3557	2032	1
5	3569	2040	1
5	3576	2044	1
5	3585	2048	1
5	3602	2056	1
5	3606	2060	1
5	3612	2064	1
5	3619	2068	1
5	3627	2072	1
5	3636	2076	1
5	3640	2080	1
5	3656	2088	1
5	3663	2092	1
5	3670	2096	1
5	3674	2100	1
5	3681	2104	1
5	3699	2112	1
5	3712	2120	1
5	3720	2124	1
5	3729	2128	1
5	3745	2136	1
5	3749	2140	1
5	3758	2144	1
5	3765	2148	1
5	3772	2152	1
5	3779	2156	1
5	3783	2160	1
5	3791	2164	1
5	3798	2168	1
5	3805	2172	1
5	3812	2176	1
5	3816	2180	1
5	3823	2184	1
5	3831	2188	1
5	3839	2192	1
5	3848	2196	1
5	3852	2200	1
5	3861	2204	1
5	3868	2208	1
5	3876	2212	1
5	3888	2220	1
5	3895	2224	1
5	3913	2232	1
5	3920	2236	1
5	3924	2240	1
5	3930	2244	1
5	3937	2248	1
5	3945	2252	1
5	3953	2256	1
5	3957	2260	1
5	3963	2264	1
5	3973	2268	1
5	3980	2272	1
5	3987	2276	1
5	3991	2280	1
5	3998	2284	1
5	4007	2288	1
5	4016	2292	1
5	4025	2296	1
5	4029	2300	1
5	4038	2304	1
5	4045	2308	1
5	4052	2312	1
5	4061	2316	1
5	4065	2320	1
5	4072	2324	1
5	4081	2328	1
5	4090	2332	1
5	4100	2336	1
5	4104	2340	1
5	4110	2344	1
5	4117	2348	1
5	4124	2352	1
5	4131	2356	1
5	4135	2360	1
5	4142	2364	1
5	4151	2368	1
5	4160	2372	1
5	4168	2376	1
5	4172	2380	1
5	4179	2384	1
5	4196	2392	1
5	4203	2396	1
5	4207	2400	1
5	4214	2404	1
5	4229	2412	1
5	4238	2416	1
5	4242	2420	1
5	4249	2424	1
5	4275	2436	1
5	4279	2440	1
5	4285	2444	1
5	4292	2448	1
5	4300	2452	1
5	4310	2456	1
5	4314	2460	1
5	4320	2464	1
5	4327	2468	1
5	4334	2472	1
5	4342	2476	1
5	4346	2480	1
5	4371	2492	1
5	4378	2496	1
5	4382	2500	1
5	4388	2504	1
5	4396	2508	1
5	4405	2512	1
5	4419	2520	1
5	4426	2524	1
5	4435	2528	1
5	4443	2532	1
5	4450	2536	1
5	4454	2540	1
5	4461	2544	1
5	4478	2552	1
5	4485	2556	1
5	4489	2560	1
5	4495	2564	1
5	4503	2568	1
5	4520	2576	1
5	4524	2580	1
5	4530	2584	1
5	4538	2588	1
5	4547	2592	1
5	4557	2596	1
5	4561	2600	1
5	4568	2604	1
5	4594	2616	1
5	4598	2620	1
5	4604	2624	1
5	4612	2628	1
5	4621	2632	1
5	4630	2636	1
5	4634	2640	1
5	4643	2644	1
5	4651	2648	1
5	4673	2660	1
5	4698	2672	1
5	4708	2676	1
5	4712	2680	1
5	4718	2684	1
5	4725	2688	1
5	4732	2692	1
5	4739	2696	1
5	4743	2700	1
5	4750	2704	1
5	4769	2712	1
5	4777	2716	1
5	4781	2720	1
5	4789	2724	1
5	4797	2728	1
5	4805	2732	1
5	4814	2736	1
5	4818	2740	1
5	4843	2752	1
5	4850	2756	1
5	4854	2760	1
5	4861	2764	1
5	4870	2768	1
5	4879	2772	1
5	4887	2776	1
5	4891	2780	1
5	4900	2784	1
5	4907	2788	1
5	4914	2792	1
5	4922	2796	1
5	4926	2800	1
5	4934	2804	1
5	4943	2808	1
5	4951	2812	1
5	4959	2816	1
5	4963	2820	1
5	4970	2824	1
5	4979	2828	1
5	4986	2832	1
5	4993	2836	1
5	4997	2840	1
5	5003	2844	1
5	5010	2848	1
5	5017	2852	1
5	5026	2856	1
5	5030	2860	1
5	5036	2864	1
5	5044	2868	1
5	5066	2880	1
5	5091	2892	1
5	5098	2896	1
5	5102	2900	1
5	5108	2904	1
5	5115	2908	1
5	5123	2912	1
5	5135	2920	1
5	5143	2924	1
5	5150	2928	1
5	5157	2932	1
5	5164	2936	1
5	5168	2940	1
5	5174	2944	1
5	5181	2948	1
5	5188	2952	1
5	5195	2956	1
5	5199	2960	1
5	5206	2964	1
5	5224	2972	1
5	5232	2976	1
5	5236	2980	1
5	5242	2984	1
5	5250	2988	1
5	5259	2992	1
5	5267	2996	1
5	5271	3000	1
5	5278	3004	1
5	5286	3008	1
5	5294	3012	1
5	5307	3020	1
5	5315	3024	1
5	5332	3032	1
5	5339	3036	1
5	5343	3040	1
5	5350	3044	1
5	5366	3052	1
5	5379	3060	1
5	5395	3068	1
5	5402	3072	1
5	5409	3076	1
5	5413	3080	1
5	5420	3084	1
5	5428	3088	1
5	5437	3092	1
5	5444	3096	1
5	5448	3100	1
5	5454	3104	1
5	5461	3108	1
5	5468	3112	1
5	5476	3116	1
5	5480	3120	1
5	5488	3124	1
5	5497	3128	1
5	5505	3132	1
5	5514	3136	1
5	5518	3140	1
5	5524	3144	1
5	5531	3148	1
5	5538	3152	1
5	5545	3156	1
5	5549	3160	1
5	5555	3164	1
5	5562	3168	1
5	5570	3172	1
5	5579	3176	1
5	5583	3180	1
5	5591	3184	1
5	5600	3188	1
5	5609	3192	1
5	5618	3196	1
5	5622	3200	1
5	5630	3204	1
5	5638	3208	1
5	5645	3212	1
5	5652	3216	1
5	5656	3220	1
5	5664	3224	1
5	5671	3228	1
5	5678	3232	1
5	5685	3236	1
5	5689	3240	1
5	5696	3244	1
5	5705	3248	1
5	5714	3252	1
5	5722	3256	1
5	5726	3260	1
5	5732	3264	1
5	5739	3268	1
5	5747	3272	1
5	5755	3276	1
5	5759	3280	1
5	5765	3284	1
5	5773	3288	1
5	5789	3296	1
5	5793	3300	1
5	5801	3304	1
5	5818	3312	1
5	5825	3316	1
5	5829	3320	1
5	5835	3324	1
5	5843	3328	1
5	5860	3336	1
5	5864	3340	1
5	5871	3344	1
5	5880	3348	1
5	5889	3352	1
5	5899	3356	1
5	5903	3360	1
5	5909	3364	1
5	5917	3368	1
5	5926	3372	1
5	5937	3376	1
5	5941	3380	1
5	5947	3384	1
5	5954	3388	1
5	5961	3392	1
5	5968	3396	1
5	5972	3400	1
5	5978	3404	1
5	5985	3408	1
5	5993	3412	1
5	6001	3416	1
5	6005	3420	1
5	6012	3424	1
5	6022	3428	1
5	6030	3432	1
5	6043	3440	1
5	6060	3448	1
5	6069	3452	1
5	6078	3456	1
5	6082	3460	1
5	6090	3464	1
5	6099	3468	1
5	6108	3472	1
5	6116	3476	1
5	6120	3480	1
5	6127	3484	1
5	6144	3492	1
5	6151	3496	1
5	6155	3500	1
5	6163	3504	1
5	6170	3508	1
5	6177	3512	1
5	6185	3516	1
5	6189	3520	1
5	6205	3528	1
5	6212	3532	1
5	6219	3536	1
5	6223	3540	1
5	6229	3544	1
5	6236	3548	1
5	6244	3552	1
5	6258	3560	1
5	6264	3564	1
5	6271	3568	1
5	6278	3572	1
5	6286	3576	1
5	6290	3580	1
5	6322	3596	1
5	6326	3600	1
6	37	24	1
6	44	28	1
6	52	32	1
6	62	36	1
6	66	40	1
6	73	44	1
6	82	48	1
6	91	52	1
6	99	56	1
6	103	60	1
6	110	64	1
6	119	68	1
6	129	72	1
6	136	76	1
6	140	80	1
6	146	84	1
6	156	88	1
6	163	92	1
6	170	96	1
6	174	100	1
6	181	104	1
6	191	108	1
6	198	112	1
6	205	116	1
6	209	120	1
6	215	124	1
6	222	128	1
6	229	132	1
6	237	136	1
6	241	140	1
6	249	144	1
6	259	148	1
6	266	152	1
6	273	156	1
6	277	160	1
6	283	164	1
6	291	168	1
6	300	172	1
6	308	176	1
6	312	180	1
6	318	184	1
6	326	188	1
6	334	192	1
6	343	196	1
6	347	200	1
6	353	204	1
6	360	208	1
6	368	212	1
6	377	216	1
6	381	220	1
6	388	224	1
6	395	228	1
6	402	232	1
6	409	236	1
6	413	240	1
6	420	244	1
6	428	248	1
6	435	252	1
6	442	256	1
6	446	260	1
6	454	264	1
6	461	268	1
6	468	272	1
6	475	276	1
6	479	280	1
6	485	284	1
6	492	288	1
6	500	292	1
6	508	296	1
6	512	300	1
6	519	304	1
6	528	308	1
6	537	312	1
6	546	316	1
6	550	320	1
6	558	324	1
6	566	328	1
6	574	332	1
6	583	336	1
6	587	340	1
6	595	344	1
6	603	348	1
6	610	352	1
6	617	356	1
6	621	360	1
6	628	364	1
6	636	368	1
6	643	372	1
6	651	376	1
6	655	380	1
6	663	384	1
6	672	388	1
6	681	392	1
6	691	396	1
6	695	400	1
6	701	404	1
6	708	408	1
6	715	412	1
6	722	416	1
6	726	420	1
6	733	424	1
6	742	428	1
6	751	432	1
6	759	436	1
6	763	440	1
6	770	444	1
6	780	448	1
6	787	452	1
6	794	456	1
6	798	460	1
6	804	464	1
6	811	468	1
6	819	472	1
6	827	476	1
6	831	480	1
6	838	484	1
6	846	488	1
6	854	492	1
6	863	496	1
6	867	500	1
6	875	504	1
6	884	508	1
6	892	512	1
6	900	516	1
6	904	520	1
6	912	524	1
6	921	528	1
6	930	532	1
6	939	536	1
6	943	540	1
6	951	544	1
6	959	548	1
6	966	552	1
6	974	556	1
6	978	560	1
6	985	564	1
6	993	568	1
6	1001	572	1
6	1009	576	1
6	1013	580	1
6	1020	584	1
6	1028	588	1
6	1036	592	1
6	1043	596	1
6	1047	600	1
6	1054	604	1
6	1062	608	1
6	1069	612	1
6	1077	616	1
6	1081	620	1
6	1089	624	1
6	1098	628	1
6	1106	632	1
6	1113	636	1
6	1117	640	1
6	1123	644	1
6	1131	648	1
6	1139	652	1
6	1147	656	1
6	1151	660	1
6	1159	664	1
6	1167	668	1
6	1175	672	1
6	1183	676	1
6	1187	680	1
6	1195	684	1
6	1202	688	1
6	1209	692	1
6	1217	696	1
6	1221	700	1
6	1228	704	1
6	1236	708	1
6	1245	712	1
6	1253	716	1
6	1257	720	1
6	1264	724	1
6	1272	728	1
6	1279	732	1
6	1287	736	1
6	1291	740	1
6	1298	744	1
6	1306	748	1
6	1315	752	1
6	1324	756	1
6	1328	760	1
6	1335	764	1
6	1343	768	1
6	1352	772	1
6	1361	776	1
6	1365	780	1
6	1373	784	1
6	1382	788	1
6	1391	792	1
6	1400	796	1
6	1404	800	1
6	1412	804	1
6	1420	808	1
6	1428	812	1
6	1437	816	1
6	1441	820	1
6	1449	824	1
6	1458	828	1
6	1467	832	1
6	1476	836	1
6	1480	840	1
6	1487	844	1
6	1495	848	1
6	1503	852	1
6	1511	856	1
6	1515	860	1
6	1523	864	1
6	1531	868	1
6	1538	872	1
6	1545	876	1
6	1549	880	1
6	1556	884	1
6	1565	888	1
6	1574	892	1
6	1583	896	1
6	1587	900	1
6	1596	904	1
6	1603	908	1
6	1610	912	1
6	1617	916	1
6	1621	920	1
6	1627	924	1
6	1636	928	1
6	1643	932	1
6	1650	936	1
6	1654	940	1
6	1660	944	1
6	1667	948	1
6	1675	952	1
6	1685	956	1
6	1689	960	1
6	1695	964	1
6	1702	968	1
6	1709	972	1
6	1717	976	1
6	1721	980	1
6	1728	984	1
6	1736	988	1
6	1745	992	1
6	1753	996	1
6	1757	1000	1
6	1764	1004	1
6	1773	1008	1
6	1782	1012	1
6	1792	1016	1
6	1796	1020	1
6	1802	1024	1
6	1809	1028	1
6	1816	1032	1
6	1823	1036	1
6	1827	1040	1
6	1833	1044	1
6	1841	1048	1
6	1849	1052	1
6	1857	1056	1
6	1861	1060	1
6	1869	1064	1
6	1877	1068	1
6	1884	1072	1
6	1892	1076	1
6	1896	1080	1
6	1904	1084	1
6	1914	1088	1
6	1921	1092	1
6	1928	1096	1
6	1932	1100	1
6	1939	1104	1
6	1948	1108	1
6	1956	1112	1
6	1964	1116	1
6	1968	1120	1
6	1976	1124	1
6	1985	1128	1
6	1994	1132	1
6	2003	1136	1
6	2007	1140	1
6	2015	1144	1
6	2024	1148	1
6	2032	1152	1
6	2040	1156	1
6	2044	1160	1
6	2052	1164	1
6	2060	1168	1
6	2068	1172	1
6	2077	1176	1
6	2081	1180	1
6	2089	1184	1
6	2097	1188	1
6	2105	1192	1
6	2114	1196	1
6	2118	1200	1
6	2126	1204	1
6	2135	1208	1
6	2143	1212	1
6	2151	1216	1
6	2155	1220	1
6	2162	1224	1
6	2170	1228	1
6	2178	1232	1
6	2185	1236	1
6	2189	1240	1
6	2196	1244	1
6	2205	1248	1
6	2213	1252	1
6	2221	1256	1
6	2225	1260	1
6	2232	1264	1
6	2240	1268	1
6	2248	1272	1
6	2256	1276	1
6	2260	1280	1
6	2268	1284	1
6	2276	1288	1
6	2284	1292	1
6	2293	1296	1
6	2297	1300	1
6	2305	1304	1
6	2313	1308	1
6	2320	1312	1
6	2328	1316	1
6	2332	1320	1
6	2339	1324	1
6	2346	1328	1
6	2354	1332	1
6	2363	1336	1
6	2367	1340	1
6	2375	1344	1
6	2384	1348	1
6	2393	1352	1
6	2401	1356	1
6	2405	1360	1
6	2412	1364	1
6	2420	1368	1
6	2427	1372	1
6	2434	1376	1
6	2438	1380	1
6	2444	1384	1
6	2452	1388	1
6	2460	1392	1
6	2468	1396	1
6	2472	1400	1
6	2479	1404	1
6	2486	1408	1
6	2494	1412	1
6	2502	1416	1
6	2506	1420	1
6	2513	1424	1
6	2523	1428	1
6	2530	1432	1
6	2537	1436	1
6	2541	1440	1
6	2547	1444	1
6	2554	1448	1
6	2562	1452	1
6	2570	1456	1
6	2574	1460	1
6	2580	1464	1
6	2587	1468	1
6	2595	1472	1
6	2604	1476	1
6	2608	1480	1
6	2615	1484	1
6	2622	1488	1
6	2629	1492	1
6	2636	1496	1
6	2640	1500	1
6	2646	1504	1
6	2654	1508	1
6	2662	1512	1
6	2670	1516	1
6	2674	1520	1
6	2681	1524	1
6	2688	1528	1
6	2695	1532	1
6	2702	1536	1
6	2706	1540	1
6	2712	1544	1
6	2719	1548	1
6	2727	1552	1
6	2736	1556	1
6	2740	1560	1
6	2748	1564	1
6	2757	1568	1
6	2765	1572	1
6	2773	1576	1
6	2777	1580	1
6	2784	1584	1
6	2792	1588	1
6	2801	1592	1
6	2810	1596	1
6	2814	1600	1
6	2821	1604	1
6	2828	1608	1
6	2835	1612	1
6	2843	1616	1
6	2847	1620	1
6	2854	1624	1
6	2862	1628	1
6	2879	1636	1
6	2883	1640	1
6	2889	1644	1
6	2896	1648	1
6	2903	1652	1
6	2911	1656	1
6	2915	1660	1
6	2924	1664	1
6	2931	1668	1
6	2939	1672	1
6	2947	1676	1
6	2951	1680	1
6	2958	1684	1
6	2968	1688	1
6	2976	1692	1
6	2988	1700	1
6	2994	1704	1
6	3003	1708	1
6	3010	1712	1
6	3017	1716	1
6	3021	1720	1
6	3027	1724	1
6	3034	1728	1
6	3041	1732	1
6	3048	1736	1
6	3052	1740	1
6	3058	1744	1
6	3067	1748	1
6	3074	1752	1
6	3081	1756	1
6	3085	1760	1
6	3092	1764	1
6	3101	1768	1
6	3111	1772	1
6	3118	1776	1
6	3122	1780	1
6	3129	1784	1
6	3159	1800	1
6	3167	1804	1
6	3174	1808	1
6	3182	1812	1
6	3191	1816	1
6	3195	1820	1
6	3202	1824	1
6	3210	1828	1
6	3219	1832	1
6	3230	1836	1
6	3234	1840	1
6	3240	1844	1
6	3247	1848	1
6	3254	1852	1
6	3261	1856	1
6	3265	1860	1
6	3271	1864	1
6	3278	1868	1
6	3286	1872	1
6	3294	1876	1
6	3298	1880	1
6	3306	1884	1
6	3313	1888	1
6	3320	1892	1
6	3328	1896	1
6	3332	1900	1
6	3340	1904	1
6	3348	1908	1
6	3357	1912	1
6	3364	1916	1
6	3368	1920	1
6	3374	1924	1
6	3381	1928	1
6	3389	1932	1
6	3399	1936	1
6	3403	1940	1
6	3409	1944	1
6	3416	1948	1
6	3423	1952	1
6	3432	1956	1
6	3436	1960	1
6	3442	1964	1
6	3449	1968	1
6	3456	1972	1
6	3464	1976	1
6	3468	1980	1
6	3482	1988	1
6	3491	1992	1
6	3498	1996	1
6	3502	2000	1
6	3508	2004	1
6	3515	2008	1
6	3524	2012	1
6	3531	2016	1
6	3535	2020	1
6	3542	2024	1
6	3550	2028	1
6	3558	2032	1
6	3566	2036	1
6	3570	2040	1
6	3577	2044	1
6	3596	2052	1
6	3603	2056	1
6	3607	2060	1
6	3613	2064	1
6	3620	2068	1
6	3628	2072	1
6	3641	2080	1
6	3650	2084	1
6	3657	2088	1
6	3664	2092	1
6	3671	2096	1
6	3675	2100	1
6	3682	2104	1
6	3691	2108	1
6	3709	2116	1
6	3713	2120	1
6	3738	2132	1
6	3746	2136	1
6	3750	2140	1
6	3766	2148	1
6	3773	2152	1
6	3780	2156	1
6	3784	2160	1
6	3792	2164	1
6	3799	2168	1
6	3806	2172	1
6	3813	2176	1
6	3817	2180	1
6	3824	2184	1
6	3840	2192	1
6	3849	2196	1
6	3853	2200	1
6	3862	2204	1
6	3869	2208	1
6	3877	2212	1
6	3885	2216	1
6	3889	2220	1
6	3896	2224	1
6	3907	2228	1
6	3914	2232	1
6	3921	2236	1
6	3925	2240	1
6	3931	2244	1
6	3938	2248	1
6	3946	2252	1
6	3958	2260	1
6	3964	2264	1
6	3974	2268	1
6	3981	2272	1
6	3988	2276	1
6	3992	2280	1
6	3999	2284	1
6	4026	2296	1
6	4030	2300	1
6	4039	2304	1
6	4046	2308	1
6	4053	2312	1
6	4062	2316	1
6	4066	2320	1
6	4073	2324	1
6	4082	2328	1
6	4091	2332	1
6	4101	2336	1
6	4105	2340	1
6	4111	2344	1
6	4118	2348	1
6	4125	2352	1
6	4132	2356	1
6	4136	2360	1
6	4143	2364	1
6	4152	2368	1
6	4161	2372	1
6	4169	2376	1
6	4173	2380	1
6	4180	2384	1
6	4190	2388	1
6	4197	2392	1
6	4204	2396	1
6	4208	2400	1
6	4215	2404	1
6	4223	2408	1
6	4230	2412	1
6	4239	2416	1
6	4243	2420	1
6	4250	2424	1
6	4259	2428	1
6	4269	2432	1
6	4276	2436	1
6	4280	2440	1
6	4286	2444	1
6	4293	2448	1
6	4301	2452	1
6	4311	2456	1
6	4315	2460	1
6	4321	2464	1
6	4328	2468	1
6	4335	2472	1
6	4343	2476	1
6	4347	2480	1
6	4355	2484	1
6	4365	2488	1
6	4372	2492	1
6	4379	2496	1
6	4383	2500	1
6	4389	2504	1
6	4397	2508	1
6	4406	2512	1
6	4416	2516	1
6	4420	2520	1
6	4427	2524	1
6	4436	2528	1
6	4444	2532	1
6	4451	2536	1
6	4455	2540	1
6	4462	2544	1
6	4472	2548	1
6	4479	2552	1
6	4486	2556	1
6	4490	2560	1
6	4496	2564	1
6	4504	2568	1
6	4514	2572	1
6	4521	2576	1
6	4525	2580	1
6	4531	2584	1
6	4539	2588	1
6	4558	2596	1
6	4562	2600	1
6	4569	2604	1
6	4578	2608	1
6	4588	2612	1
6	4595	2616	1
6	4599	2620	1
6	4605	2624	1
6	4613	2628	1
6	4622	2632	1
6	4631	2636	1
6	4635	2640	1
6	4652	2648	1
6	4661	2652	1
6	4670	2656	1
6	4674	2660	1
6	4682	2664	1
6	4691	2668	1
6	4699	2672	1
6	4709	2676	1
6	4713	2680	1
6	4719	2684	1
6	4726	2688	1
6	4733	2692	1
6	4740	2696	1
6	4744	2700	1
6	4751	2704	1
6	4760	2708	1
6	4770	2712	1
6	4778	2716	1
6	4782	2720	1
6	4790	2724	1
6	4798	2728	1
6	4806	2732	1
6	4815	2736	1
6	4819	2740	1
6	4827	2744	1
6	4837	2748	1
6	4844	2752	1
6	4851	2756	1
6	4855	2760	1
6	4862	2764	1
6	4871	2768	1
6	4880	2772	1
6	4888	2776	1
6	4892	2780	1
6	4901	2784	1
6	4908	2788	1
6	4915	2792	1
6	4923	2796	1
6	4927	2800	1
6	4935	2804	1
6	4944	2808	1
6	4952	2812	1
6	4960	2816	1
6	4964	2820	1
6	4971	2824	1
6	4980	2828	1
6	4987	2832	1
6	4994	2836	1
6	4998	2840	1
6	5004	2844	1
6	5011	2848	1
6	5018	2852	1
6	5027	2856	1
6	5031	2860	1
6	5037	2864	1
6	5045	2868	1
6	5054	2872	1
6	5063	2876	1
6	5067	2880	1
6	5075	2884	1
6	5085	2888	1
6	5092	2892	1
6	5099	2896	1
6	5103	2900	1
6	5109	2904	1
6	5116	2908	1
6	5124	2912	1
6	5132	2916	1
6	5136	2920	1
6	5144	2924	1
6	5151	2928	1
6	5158	2932	1
6	5165	2936	1
6	5169	2940	1
6	5175	2944	1
6	5182	2948	1
6	5189	2952	1
6	5196	2956	1
6	5200	2960	1
6	5207	2964	1
6	5216	2968	1
6	5225	2972	1
6	5233	2976	1
6	5237	2980	1
6	5243	2984	1
6	5251	2988	1
6	5260	2992	1
6	5268	2996	1
6	5272	3000	1
6	5279	3004	1
6	5287	3008	1
6	5295	3012	1
6	5304	3016	1
6	5308	3020	1
6	5316	3024	1
6	5326	3028	1
6	5333	3032	1
6	5340	3036	1
6	5344	3040	1
6	5351	3044	1
6	5359	3048	1
6	5367	3052	1
6	5376	3056	1
6	5380	3060	1
6	5389	3064	1
6	5396	3068	1
6	5403	3072	1
6	5410	3076	1
6	5414	3080	1
6	5421	3084	1
6	5429	3088	1
6	5438	3092	1
6	5445	3096	1
6	5449	3100	1
6	5455	3104	1
6	5462	3108	1
6	5469	3112	1
6	5477	3116	1
6	5481	3120	1
6	5489	3124	1
6	5498	3128	1
6	5506	3132	1
6	5515	3136	1
6	5519	3140	1
6	5525	3144	1
6	5532	3148	1
6	5539	3152	1
6	5546	3156	1
6	5550	3160	1
6	5556	3164	1
6	5563	3168	1
6	5571	3172	1
6	5580	3176	1
6	5584	3180	1
6	5592	3184	1
6	5601	3188	1
6	5610	3192	1
6	5619	3196	1
6	5623	3200	1
6	5631	3204	1
6	5639	3208	1
6	5646	3212	1
6	5653	3216	1
6	5657	3220	1
6	5665	3224	1
6	5672	3228	1
6	5679	3232	1
6	5686	3236	1
6	5690	3240	1
6	5697	3244	1
6	5706	3248	1
6	5715	3252	1
6	5723	3256	1
6	5727	3260	1
6	5733	3264	1
6	5740	3268	1
6	5748	3272	1
6	5756	3276	1
6	5760	3280	1
6	5766	3284	1
6	5774	3288	1
6	5782	3292	1
6	5790	3296	1
6	5794	3300	1
6	5802	3304	1
6	5812	3308	1
6	5819	3312	1
6	5826	3316	1
6	5830	3320	1
6	5836	3324	1
6	5844	3328	1
6	5854	3332	1
6	5861	3336	1
6	5865	3340	1
6	5872	3344	1
6	5904	3360	1
6	5910	3364	1
6	5918	3368	1
6	5927	3372	1
6	5938	3376	1
6	5942	3380	1
6	5948	3384	1
6	5955	3388	1
6	5962	3392	1
6	5969	3396	1
6	5973	3400	1
6	5979	3404	1
6	5986	3408	1
6	5994	3412	1
6	6002	3416	1
6	6006	3420	1
6	6013	3424	1
6	6023	3428	1
6	6031	3432	1
6	6040	3436	1
6	6044	3440	1
6	6052	3444	1
6	6061	3448	1
6	6070	3452	1
6	6079	3456	1
6	6083	3460	1
6	6091	3464	1
6	6100	3468	1
6	6109	3472	1
6	6117	3476	1
6	6121	3480	1
6	6128	3484	1
6	6138	3488	1
6	6145	3492	1
6	6152	3496	1
6	6156	3500	1
6	6164	3504	1
6	6171	3508	1
6	6178	3512	1
6	6186	3516	1
6	6190	3520	1
6	6199	3524	1
6	6206	3528	1
6	6213	3532	1
6	6220	3536	1
6	6224	3540	1
6	6230	3544	1
6	6237	3548	1
6	6245	3552	1
6	6255	3556	1
6	6259	3560	1
6	6265	3564	1
6	6272	3568	1
6	6279	3572	1
6	6287	3576	1
6	6291	3580	1
6	6299	3584	1
6	6308	3588	1
6	6316	3592	1
6	6323	3596	1
6	6327	3600	1
7	55	35	1
7	113	65	1
7	122	70	1
7	1577	895	1
7	1589	900	1
7	2917	1660	1
7	2942	1675	1
7	2961	1685	1
7	3185	1815	1
7	3197	1820	1
7	3213	1830	1
7	3222	1835	1
7	3289	1875	1
7	3843	2195	1
7	3855	2200	1
7	4020	2295	1
7	4032	2300	1
7	4076	2325	1
7	4085	2330	1
7	4094	2335	1
7	4146	2365	1
7	4155	2370	1
7	4164	2375	1
7	4304	2455	1
7	4400	2510	1
7	4430	2525	1
7	4439	2530	1
7	4551	2595	1
7	4616	2630	1
7	4625	2635	1
7	4694	2670	1
7	4763	2710	1
7	4784	2720	1
7	4793	2725	1
7	4809	2735	1
7	4865	2765	1
7	4874	2770	1
7	4883	2775	1
7	4929	2800	1
7	4938	2805	1
7	4947	2810	1
7	4966	2820	1
7	5219	2970	1
7	5228	2975	1
7	5254	2990	1
7	5263	2995	1
7	5282	3005	1
7	5310	3020	1
7	5424	3085	1
7	5483	3120	1
7	5492	3125	1
7	5501	3130	1
7	5574	3175	1
7	5586	3180	1
7	5595	3185	1
7	5604	3190	1
7	5613	3195	1
7	5625	3200	1
7	5634	3205	1
7	5700	3245	1
7	5709	3250	1
7	5718	3255	1
7	5751	3275	1
7	5796	3300	1
7	5921	3370	1
7	5930	3375	1
7	5997	3415	1
7	6016	3425	1
7	6055	3445	1
7	6064	3450	1
7	6073	3455	1
7	6085	3460	1
7	6094	3465	1
7	6103	3470	1
7	6112	3475	1
8	55	35	31
8	113	65	57
8	122	70	58
8	1577	895	879
8	1589	900	880
8	2917	1660	1624
8	2942	1675	1607
8	2961	1685	1613
8	3185	1815	919
8	3197	1820	916
8	3213	1830	166
8	3222	1835	159
8	3289	1875	187
8	3843	2195	379
8	3855	2200	376
8	4020	2295	463
8	4032	2300	464
8	4076	2325	449
8	4085	2330	134
8	4094	2335	131
8	4146	2365	69
8	4155	2370	66
8	4164	2375	47
8	4304	2455	123
8	4400	2510	174
8	4430	2525	157
8	4439	2530	158
8	4551	2595	219
8	4616	2630	174
8	4625	2635	123
8	4694	2670	142
8	4763	2710	178
8	4784	2720	124
8	4793	2725	93
8	4809	2735	99
8	4865	2765	93
8	4874	2770	58
8	4883	2775	51
8	4929	2800	72
8	4938	2805	69
8	4947	2810	42
8	4966	2820	48
8	5219	2970	194
8	5228	2975	171
8	5254	2990	182
8	5263	2995	183
8	5282	3005	181
8	5310	3020	48
8	5424	3085	109
8	5483	3120	128
8	5492	3125	129
8	5501	3130	122
8	5574	3175	151
8	5586	3180	92
8	5595	3185	61
8	5604	3190	62
8	5613	3195	63
8	5625	3200	24
8	5634	3205	21
8	5700	3245	57
8	5709	3250	58
8	5718	3255	59
8	5751	3275	71
8	5796	3300	92
8	5921	3370	122
8	5930	3375	123
8	5997	3415	159
8	6016	3425	149
8	6055	3445	141
8	6064	3450	78
8	6073	3455	79
8	6085	3460	44
8	6094	3465	37
8	6103	3470	22
8	6112	3475	23
9	55	35	1
9	113	65	1
9	122	70	1
9	1577	895	1
9	1589	900	1
9	2917	1660	1
9	2942	1675	1
9	2961	1685	1
9	3185	1815	1
9	3197	1820	1
9	3213	1830	1
9	3222	1835	1
9	3289	1875	1
9	3843	2195	1
9	3855	2200	1
9	4020	2295	1
9	4032	2300	1
9	4076	2325	1
9	4085	2330	1
9	4094	2335	1
9	4146	2365	1
9	4155	2370	1
9	4164	2375	1
9	4304	2455	1
9	4400	2510	1
9	4430	2525	1
9	4439	2530	1
9	4551	2595	1
9	4616	2630	1
9	4625	2635	1
9	4694	2670	1
9	4763	2710	1
9	4784	2720	1
9	4793	2725	1
9	4809	2735	1
9	4865	2765	1
9	4874	2770	1
9	4883	2775	1
9	4929	2800	1
9	4938	2805	1
9	4947	2810	1
9	4966	2820	1
9	5219	2970	1
9	5228	2975	1
9	5254	2990	1
9	5263	2995	1
9	5282	3005	1
9	5310	3020	1
9	5424	3085	1
9	5483	3120	1
9	5492	3125	1
9	5501	3130	1
9	5574	3175	1
9	5586	3180	1
9	5595	3185	1
9	5604	3190	1
9	5613	3195	1
9	5625	3200	1
9	5634	3205	1
9	5700	3245	1
9	5709	3250	1
9	5718	3255	1
9	5751	3275	1
9	5796	3300	1
9	5921	3370	1
9	5930	3375	1
9	5997	3415	1
9	6016	3425	1
9	6055	3445	1
9	6064	3450	1
9	6073	3455	1
9	6085	3460	1
9	6094	3465	1
9	6103	3470	1
9	6112	3475	1
10	76	45	1
10	85	50	1
10	94	55	1
10	184	105	1
10	243	140	1
10	252	145	1
10	294	170	1
10	303	175	1
10	329	190	1
10	371	215	1
10	383	220	1
10	423	245	1
10	503	295	1
10	522	305	1
10	531	310	1
10	540	315	1
10	552	320	1
10	561	325	1
10	577	335	1
10	589	340	1
10	598	345	1
10	631	365	1
10	657	380	1
10	666	385	1
10	675	390	1
10	684	395	1
10	736	425	1
10	745	430	1
10	754	435	1
10	773	445	1
10	822	475	1
10	841	485	1
10	857	495	1
10	869	500	1
10	878	505	1
10	887	510	1
10	906	520	1
10	915	525	1
10	924	530	1
10	933	535	1
10	945	540	1
10	954	545	1
10	980	560	1
10	996	570	1
10	1015	580	1
10	1031	590	1
10	1057	605	1
10	1083	620	1
10	1092	625	1
10	1101	630	1
10	1134	650	1
10	1153	660	1
10	1162	665	1
10	1178	675	1
10	1223	700	1
10	1239	710	1
10	1248	715	1
10	1267	725	1
10	1293	740	1
10	1309	750	1
10	1318	755	1
10	1330	760	1
10	1346	770	1
10	1355	775	1
10	1367	780	1
10	1376	785	1
10	1385	790	1
10	1394	795	1
10	1406	800	1
10	1415	805	1
10	1431	815	1
10	1443	820	1
10	1452	825	1
10	1461	830	1
10	1470	835	1
10	1482	840	1
10	1498	850	1
10	1517	860	1
10	1526	865	1
10	1559	885	1
10	1568	890	1
10	1678	955	1
10	1723	980	1
10	1739	990	1
10	1748	995	1
10	1767	1005	1
10	1776	1010	1
10	1785	1015	1
10	1844	1050	1
10	1863	1060	1
10	1872	1065	1
10	1898	1080	1
10	1907	1085	1
10	1942	1105	1
10	1951	1110	1
10	1970	1120	1
10	1979	1125	1
10	1988	1130	1
10	1997	1135	1
10	2009	1140	1
10	2018	1145	1
10	2027	1150	1
10	2046	1160	1
10	2055	1165	1
10	2071	1175	1
10	2083	1180	1
10	2092	1185	1
10	2108	1195	1
10	2120	1200	1
10	2129	1205	1
10	2138	1210	1
10	2157	1220	1
10	2173	1230	1
10	2199	1245	1
10	2208	1250	1
10	2227	1260	1
10	2243	1270	1
10	2262	1280	1
10	2271	1285	1
10	2287	1295	1
10	2299	1300	1
10	2308	1305	1
10	2334	1320	1
10	2357	1335	1
10	2369	1340	1
10	2378	1345	1
10	2387	1350	1
10	2396	1355	1
10	2415	1365	1
10	2455	1390	1
10	2474	1400	1
10	2497	1415	1
10	2516	1425	1
10	2565	1455	1
10	2598	1475	1
10	2610	1480	1
10	2657	1510	1
10	2676	1520	1
10	2730	1555	1
10	2742	1560	1
10	2751	1565	1
10	2760	1570	1
10	2779	1580	1
10	2795	1590	1
10	2804	1595	1
10	2816	1600	1
10	2849	1620	1
10	3095	1765	1
10	3104	1770	1
10	3334	1900	1
10	3343	1905	1
10	3392	1935	1
10	3545	2025	1
10	3561	2035	1
10	3589	2050	1
10	3643	2080	1
10	3685	2105	1
10	3703	2115	1
10	3733	2130	1
10	3880	2215	1
10	3899	2225	1
10	4183	2385	1
10	4218	2405	1
10	4253	2425	1
10	4262	2430	1
10	4349	2480	1
10	4358	2485	1
10	4409	2515	1
10	4465	2545	1
10	4507	2570	1
10	4572	2605	1
10	4581	2610	1
10	4655	2650	1
10	4664	2655	1
10	4676	2660	1
10	4685	2665	1
10	4754	2705	1
10	4821	2740	1
10	4830	2745	1
10	5048	2870	1
10	5057	2875	1
10	5069	2880	1
10	5078	2885	1
10	5127	2915	1
10	5210	2965	1
10	5298	3015	1
10	5319	3025	1
10	5354	3045	1
10	5370	3055	1
10	5382	3060	1
10	5777	3290	1
10	5805	3305	1
10	5847	3330	1
10	6034	3435	1
10	6046	3440	1
10	6131	3485	1
10	6192	3520	1
10	6248	3555	1
10	6293	3580	1
10	6302	3585	1
10	6311	3590	1
11	76	45	41
11	85	50	42
11	94	55	43
11	184	105	89
11	243	140	120
11	252	145	97
11	294	170	118
11	303	175	119
11	329	190	82
11	371	215	71
11	383	220	72
11	423	245	73
11	503	295	119
11	522	305	113
11	531	310	94
11	540	315	91
11	552	320	72
11	561	325	29
11	577	335	27
11	589	340	28
11	598	345	29
11	631	365	41
11	657	380	52
11	666	385	49
11	675	390	46
11	684	395	47
11	736	425	57
11	745	430	46
11	754	435	47
11	773	445	53
11	822	475	79
11	841	485	57
11	857	495	63
11	869	500	64
11	878	505	57
11	887	510	34
11	906	520	32
11	915	525	29
11	924	530	26
11	933	535	27
11	945	540	28
11	954	545	21
11	980	560	32
11	996	570	38
11	1015	580	44
11	1031	590	46
11	1057	605	57
11	1083	620	56
11	1092	625	53
11	1101	630	46
11	1134	650	58
11	1153	660	52
11	1162	665	41
11	1178	675	47
11	1223	700	68
11	1239	710	58
11	1248	715	51
11	1267	725	57
11	1293	740	64
11	1309	750	46
11	1318	755	43
11	1330	760	44
11	1346	770	42
11	1355	775	31
11	1367	780	28
11	1376	785	29
11	1385	790	26
11	1394	795	23
11	1406	800	24
11	1415	805	21
11	1431	815	27
11	1443	820	28
11	1452	825	29
11	1461	830	26
11	1470	835	27
11	1482	840	24
11	1498	850	26
11	1517	860	32
11	1526	865	33
11	1559	885	49
11	1568	890	46
11	1678	955	103
11	1723	980	116
11	1739	990	122
11	1748	995	107
11	1767	1005	113
11	1776	1010	54
11	1785	1015	31
11	1844	1050	58
11	1863	1060	64
11	1872	1065	57
11	1898	1080	68
11	1907	1085	69
11	1942	1105	53
11	1951	1110	46
11	1970	1120	52
11	1979	1125	41
11	1988	1130	42
11	1997	1135	27
11	2009	1140	28
11	2018	1145	21
11	2027	1150	22
11	2046	1160	28
11	2055	1165	29
11	2071	1175	31
11	2083	1180	32
11	2092	1185	33
11	2108	1195	31
11	2120	1200	32
11	2129	1205	29
11	2138	1210	26
11	2157	1220	32
11	2173	1230	34
11	2199	1245	41
11	2208	1250	42
11	2227	1260	48
11	2243	1270	46
11	2262	1280	48
11	2271	1285	37
11	2287	1295	43
11	2299	1300	36
11	2308	1305	33
11	2334	1320	36
11	2357	1335	47
11	2369	1340	44
11	2378	1345	41
11	2387	1350	42
11	2396	1355	31
11	2415	1365	29
11	2455	1390	46
11	2474	1400	52
11	2497	1415	63
11	2516	1425	69
11	2565	1455	87
11	2598	1475	83
11	2610	1480	76
11	2657	1510	94
11	2676	1520	92
11	2730	1555	99
11	2742	1560	84
11	2751	1565	81
11	2760	1570	58
11	2779	1580	56
11	2795	1590	34
11	2804	1595	31
11	2816	1600	32
11	2849	1620	48
11	3095	1765	181
11	3104	1770	178
11	3334	1900	304
11	3343	1905	301
11	3392	1935	311
11	3545	2025	257
11	3561	2035	263
11	3589	2050	146
11	3643	2080	172
11	3685	2105	169
11	3703	2115	87
11	3733	2130	94
11	3880	2215	163
11	3899	2225	141
11	4183	2385	277
11	4218	2405	289
11	4253	2425	293
11	4262	2430	214
11	4349	2480	252
11	4358	2485	97
11	4409	2515	107
11	4465	2545	117
11	4507	2570	138
11	4572	2605	121
11	4581	2610	122
11	4655	2650	134
11	4664	2655	107
11	4676	2660	88
11	4685	2665	57
11	4754	2705	93
11	4821	2740	88
11	4830	2745	89
11	5048	2870	206
11	5057	2875	207
11	5069	2880	172
11	5078	2885	141
11	5127	2915	167
11	5210	2965	93
11	5298	3015	139
11	5319	3025	141
11	5354	3045	157
11	5370	3055	139
11	5382	3060	92
11	5777	3290	274
11	5805	3305	277
11	5847	3330	282
11	6034	3435	379
11	6046	3440	376
11	6131	3485	193
11	6192	3520	212
11	6248	3555	223
11	6293	3580	144
11	6302	3585	141
11	6311	3590	102
12	76	45	1
12	85	50	1
12	94	55	1
12	184	105	1
12	243	140	1
12	252	145	1
12	294	170	1
12	303	175	1
12	329	190	1
12	371	215	1
12	383	220	1
12	423	245	1
12	503	295	1
12	522	305	1
12	531	310	1
12	540	315	1
12	552	320	1
12	561	325	1
12	577	335	1
12	589	340	1
12	598	345	1
12	631	365	1
12	657	380	1
12	666	385	1
12	675	390	1
12	684	395	1
12	736	425	1
12	745	430	1
12	754	435	1
12	773	445	1
12	822	475	1
12	841	485	1
12	857	495	1
12	869	500	1
12	878	505	1
12	887	510	1
12	906	520	1
12	915	525	1
12	924	530	1
12	933	535	1
12	945	540	1
12	954	545	1
12	980	560	1
12	996	570	1
12	1015	580	1
12	1031	590	1
12	1057	605	1
12	1083	620	1
12	1092	625	1
12	1101	630	1
12	1134	650	1
12	1153	660	1
12	1162	665	1
12	1178	675	1
12	1223	700	1
12	1239	710	1
12	1248	715	1
12	1267	725	1
12	1293	740	1
12	1309	750	1
12	1318	755	1
12	1330	760	1
12	1346	770	1
12	1355	775	1
12	1367	780	1
12	1376	785	1
12	1385	790	1
12	1394	795	1
12	1406	800	1
12	1415	805	1
12	1431	815	1
12	1443	820	1
12	1452	825	1
12	1461	830	1
12	1470	835	1
12	1482	840	1
12	1498	850	1
12	1517	860	1
12	1526	865	1
12	1559	885	1
12	1568	890	1
12	1678	955	1
12	1723	980	1
12	1739	990	1
12	1748	995	1
12	1767	1005	1
12	1776	1010	1
12	1785	1015	1
12	1844	1050	1
12	1863	1060	1
12	1872	1065	1
12	1898	1080	1
12	1907	1085	1
12	1942	1105	1
12	1951	1110	1
12	1970	1120	1
12	1979	1125	1
12	1988	1130	1
12	1997	1135	1
12	2009	1140	1
12	2018	1145	1
12	2027	1150	1
12	2046	1160	1
12	2055	1165	1
12	2071	1175	1
12	2083	1180	1
12	2092	1185	1
12	2108	1195	1
12	2120	1200	1
12	2129	1205	1
12	2138	1210	1
12	2157	1220	1
12	2173	1230	1
12	2199	1245	1
12	2208	1250	1
12	2227	1260	1
12	2243	1270	1
12	2262	1280	1
12	2271	1285	1
12	2287	1295	1
12	2299	1300	1
12	2308	1305	1
12	2334	1320	1
12	2357	1335	1
12	2369	1340	1
12	2378	1345	1
12	2387	1350	1
12	2396	1355	1
12	2415	1365	1
12	2455	1390	1
12	2474	1400	1
12	2497	1415	1
12	2516	1425	1
12	2565	1455	1
12	2598	1475	1
12	2610	1480	1
12	2657	1510	1
12	2676	1520	1
12	2730	1555	1
12	2742	1560	1
12	2751	1565	1
12	2760	1570	1
12	2779	1580	1
12	2795	1590	1
12	2804	1595	1
12	2816	1600	1
12	2849	1620	1
12	3095	1765	1
12	3104	1770	1
12	3334	1900	1
12	3343	1905	1
12	3392	1935	1
12	3545	2025	1
12	3561	2035	1
12	3589	2050	1
12	3643	2080	1
12	3685	2105	1
12	3703	2115	1
12	3733	2130	1
12	3880	2215	1
12	3899	2225	1
12	4183	2385	1
12	4218	2405	1
12	4253	2425	1
12	4262	2430	1
12	4349	2480	1
12	4358	2485	1
12	4409	2515	1
12	4465	2545	1
12	4507	2570	1
12	4572	2605	1
12	4581	2610	1
12	4655	2650	1
12	4664	2655	1
12	4676	2660	1
12	4685	2665	1
12	4754	2705	1
12	4821	2740	1
12	4830	2745	1
12	5048	2870	1
12	5057	2875	1
12	5069	2880	1
12	5078	2885	1
12	5127	2915	1
12	5210	2965	1
12	5298	3015	1
12	5319	3025	1
12	5354	3045	1
12	5370	3055	1
12	5382	3060	1
12	5777	3290	1
12	5805	3305	1
12	5847	3330	1
12	6034	3435	1
12	6046	3440	1
12	6131	3485	1
12	6192	3520	1
12	6248	3555	1
12	6293	3580	1
12	6302	3585	1
12	6311	3590	1
13	2865	1630	1
13	2979	1695	1
13	3132	1785	1
13	3141	1790	1
13	3150	1795	1
13	3470	1980	1
13	3580	2045	1
13	3631	2075	1
13	3694	2110	1
13	3715	2120	1
13	3724	2125	1
13	3752	2140	1
13	3827	2185	1
13	3949	2255	1
13	4002	2285	1
13	4011	2290	1
13	4542	2590	1
13	4637	2640	1
13	5875	3345	1
13	5884	3350	1
13	5893	3355	1
14	2865	1630	1626
14	2979	1695	1687
14	3132	1785	1773
14	3141	1790	1774
14	3150	1795	1775
14	3470	1980	348
14	3580	2045	349
14	3631	2075	287
14	3694	2110	318
14	3715	2120	324
14	3724	2125	141
14	3752	2140	92
14	3827	2185	109
14	3949	2255	143
14	4002	2285	161
14	4011	2290	162
14	4542	2590	446
14	4637	2640	452
14	5875	3345	1089
14	5884	3350	1062
14	5893	3355	1063
15	2865	1630	1
15	2979	1695	1
15	3132	1785	1
15	3141	1790	1
15	3150	1795	1
15	3470	1980	1
15	3580	2045	1
15	3631	2075	1
15	3694	2110	1
15	3715	2120	1
15	3724	2125	1
15	3752	2140	1
15	3827	2185	1
15	3949	2255	1
15	4002	2285	1
15	4011	2290	1
15	4542	2590	1
15	4637	2640	1
15	5875	3345	1
15	5884	3350	1
15	5893	3355	1

