version 2
run FourthVerification-9-20201214-15:14:41-220653
attr configname FourthVerification
attr datetime 20201214-15:14:41
attr experiment FourthVerification
attr inifile omnetpp.ini
attr iterationvars "$0=4, $1=0.4"
attr iterationvarsf 4,0.4-
attr measurement "$0=4, $1=0.4"
attr network slottedNetwork
attr processid 220653
attr repetition 0
attr replication #0
attr resultdir results
attr runnumber 9
attr seedset 9
param **.numTransmitters 4
param **.numChannels 1
param **.bufferSize 5
param **.sendProbability 0.4
param **.expMean 4s
param **.timeSlotSize 5s
param **.thresh 20s
param **.deterministicInterarrivalTime true
param **.numTransmitters 1
param **.numChannels 1
param **.bufferSize 5
param **.sendProbability 1
param **.expMean 5s
param **.timeSlotSize 5s
param **.thresh 20s
param **.deterministicInterarrivalTime false

vector 0 slottedNetwork.transmitters[0] numPacketCreated:vector ETV
attr source numPacketCreatedSignal
vector 1 slottedNetwork.transmitters[1] numPacketCreated:vector ETV
attr source numPacketCreatedSignal
vector 2 slottedNetwork.transmitters[2] numPacketCreated:vector ETV
attr source numPacketCreatedSignal
vector 3 slottedNetwork.transmitters[3] numPacketCreated:vector ETV
attr source numPacketCreatedSignal
vector 4 slottedNetwork.ch throughput:vector ETV
attr source throughputSignal
vector 5 slottedNetwork.transmitters[0] numPacketDiscarded:vector ETV
attr source numPacketDiscardedSignal
vector 6 slottedNetwork.transmitters[1] numPacketDiscarded:vector ETV
attr source numPacketDiscardedSignal
vector 7 slottedNetwork.transmitters[2] numPacketDiscarded:vector ETV
attr source numPacketDiscardedSignal
vector 8 slottedNetwork.transmitters[3] numPacketDiscarded:vector ETV
attr source numPacketDiscardedSignal
vector 9 slottedNetwork.receivers[3] numPacketReceived:vector ETV
attr source numPacketReceivedSignal
vector 10 slottedNetwork.receivers[3] responseTime:vector ETV
attr source responseTimeSignal
vector 11 slottedNetwork.receivers[3] threshold:vector ETV
attr source thresholdSignal
vector 12 slottedNetwork.receivers[1] numPacketReceived:vector ETV
attr source numPacketReceivedSignal
vector 13 slottedNetwork.receivers[1] responseTime:vector ETV
attr source responseTimeSignal
vector 14 slottedNetwork.receivers[1] threshold:vector ETV
attr source thresholdSignal
vector 15 slottedNetwork.receivers[2] numPacketReceived:vector ETV
attr source numPacketReceivedSignal
vector 16 slottedNetwork.receivers[2] responseTime:vector ETV
attr source responseTimeSignal
vector 17 slottedNetwork.receivers[2] threshold:vector ETV
attr source thresholdSignal
vector 18 slottedNetwork.receivers[0] numPacketReceived:vector ETV
attr source numPacketReceivedSignal
vector 19 slottedNetwork.receivers[0] responseTime:vector ETV
attr source responseTimeSignal
vector 20 slottedNetwork.receivers[0] threshold:vector ETV
attr source thresholdSignal
0	1	4	1
0	13	8	1
0	22	12	1
0	31	16	1
0	36	20	1
0	44	24	1
0	53	28	1
0	63	32	1
0	74	36	1
0	79	40	1
0	90	44	1
0	100	48	1
0	110	52	1
0	120	56	1
0	125	60	1
0	136	64	1
0	145	68	1
0	154	72	1
0	163	76	1
0	168	80	1
0	177	84	1
0	189	88	1
0	199	92	1
0	211	96	1
0	216	100	1
0	224	104	1
0	233	108	1
0	244	112	1
0	253	116	1
0	258	120	1
0	266	124	1
0	275	128	1
0	284	132	1
0	293	136	1
0	298	140	1
0	307	144	1
0	317	148	1
0	327	152	1
0	340	156	1
0	345	160	1
0	353	164	1
0	362	168	1
0	372	172	1
0	384	176	1
0	389	180	1
0	398	184	1
0	409	188	1
0	420	192	1
0	431	196	1
0	436	200	1
0	447	204	1
0	457	208	1
0	467	212	1
0	476	216	1
0	481	220	1
0	490	224	1
0	501	228	1
0	512	232	1
0	525	236	1
0	530	240	1
0	538	244	1
0	548	248	1
0	558	252	1
0	567	256	1
0	572	260	1
0	581	264	1
0	593	268	1
0	602	272	1
0	611	276	1
0	616	280	1
0	625	284	1
0	636	288	1
0	647	292	1
0	659	296	1
0	664	300	1
0	674	304	1
0	683	308	1
0	692	312	1
0	701	316	1
0	706	320	1
0	714	324	1
0	724	328	1
0	735	332	1
0	746	336	1
0	751	340	1
0	762	344	1
0	771	348	1
0	781	352	1
0	791	356	1
0	796	360	1
0	805	364	1
0	815	368	1
0	825	372	1
0	838	376	1
0	843	380	1
0	852	384	1
0	862	388	1
0	872	392	1
0	884	396	1
0	889	400	1
0	897	404	1
0	907	408	1
0	917	412	1
0	926	416	1
0	931	420	1
0	939	424	1
0	948	428	1
0	959	432	1
0	968	436	1
0	973	440	1
0	981	444	1
0	991	448	1
0	1002	452	1
0	1013	456	1
0	1018	460	1
0	1027	464	1
0	1038	468	1
0	1048	472	1
0	1059	476	1
0	1064	480	1
0	1075	484	1
0	1084	488	1
0	1094	492	1
0	1105	496	1
0	1110	500	1
0	1121	504	1
0	1131	508	1
0	1142	512	1
0	1153	516	1
0	1158	520	1
0	1168	524	1
0	1179	528	1
0	1191	532	1
0	1202	536	1
0	1207	540	1
0	1215	544	1
0	1225	548	1
0	1236	552	1
0	1248	556	1
0	1253	560	1
0	1262	564	1
0	1273	568	1
0	1284	572	1
0	1295	576	1
0	1300	580	1
0	1309	584	1
0	1320	588	1
0	1329	592	1
0	1340	596	1
0	1345	600	1
0	1353	604	1
0	1362	608	1
0	1371	612	1
0	1381	616	1
0	1386	620	1
0	1397	624	1
0	1407	628	1
0	1417	632	1
0	1427	636	1
0	1432	640	1
0	1441	644	1
0	1452	648	1
0	1461	652	1
0	1470	656	1
0	1475	660	1
0	1484	664	1
0	1496	668	1
0	1505	672	1
0	1514	676	1
0	1519	680	1
0	1527	684	1
0	1536	688	1
0	1547	692	1
0	1556	696	1
0	1561	700	1
0	1570	704	1
0	1582	708	1
0	1591	712	1
0	1600	716	1
0	1605	720	1
0	1613	724	1
0	1622	728	1
0	1632	732	1
0	1643	736	1
0	1648	740	1
0	1657	744	1
0	1667	748	1
0	1678	752	1
0	1688	756	1
0	1693	760	1
0	1701	764	1
0	1712	768	1
0	1721	772	1
0	1730	776	1
0	1735	780	1
0	1744	784	1
0	1755	788	1
0	1765	792	1
0	1775	796	1
0	1780	800	1
0	1790	804	1
0	1803	808	1
0	1812	812	1
0	1821	816	1
0	1826	820	1
0	1834	824	1
0	1843	828	1
0	1853	832	1
0	1864	836	1
0	1869	840	1
0	1879	844	1
0	1891	848	1
0	1901	852	1
0	1912	856	1
0	1917	860	1
0	1926	864	1
0	1936	868	1
0	1948	872	1
0	1957	876	1
0	1962	880	1
0	1971	884	1
0	1982	888	1
0	1992	892	1
0	2002	896	1
0	2007	900	1
0	2017	904	1
0	2028	908	1
0	2040	912	1
0	2049	916	1
0	2054	920	1
0	2062	924	1
0	2073	928	1
0	2082	932	1
0	2092	936	1
0	2097	940	1
0	2106	944	1
0	2116	948	1
0	2128	952	1
0	2137	956	1
0	2142	960	1
0	2150	964	1
0	2160	968	1
0	2170	972	1
0	2179	976	1
0	2184	980	1
0	2193	984	1
0	2203	988	1
0	2213	992	1
0	2225	996	1
0	2230	1000	1
0	2238	1004	1
0	2247	1008	1
0	2257	1012	1
0	2267	1016	1
0	2272	1020	1
0	2280	1024	1
0	2290	1028	1
0	2301	1032	1
0	2311	1036	1
0	2316	1040	1
0	2324	1044	1
0	2333	1048	1
0	2343	1052	1
0	2354	1056	1
0	2359	1060	1
0	2369	1064	1
0	2381	1068	1
0	2390	1072	1
0	2399	1076	1
0	2404	1080	1
0	2413	1084	1
0	2426	1088	1
0	2435	1092	1
0	2444	1096	1
0	2449	1100	1
0	2457	1104	1
0	2466	1108	1
0	2476	1112	1
0	2486	1116	1
0	2491	1120	1
0	2500	1124	1
0	2511	1128	1
0	2522	1132	1
0	2532	1136	1
0	2537	1140	1
0	2545	1144	1
0	2554	1148	1
0	2563	1152	1
0	2573	1156	1
0	2578	1160	1
0	2587	1164	1
0	2598	1168	1
0	2607	1172	1
0	2617	1176	1
0	2622	1180	1
0	2631	1184	1
0	2641	1188	1
0	2652	1192	1
0	2662	1196	1
0	2667	1200	1
0	2675	1204	1
0	2685	1208	1
0	2697	1212	1
0	2706	1216	1
0	2711	1220	1
0	2719	1224	1
0	2729	1228	1
0	2739	1232	1
0	2748	1236	1
0	2753	1240	1
0	2762	1244	1
0	2773	1248	1
0	2784	1252	1
0	2794	1256	1
0	2799	1260	1
0	2807	1264	1
0	2816	1268	1
0	2826	1272	1
0	2836	1276	1
0	2841	1280	1
0	2850	1284	1
0	2862	1288	1
0	2871	1292	1
0	2880	1296	1
0	2885	1300	1
0	2894	1304	1
0	2906	1308	1
0	2915	1312	1
0	2925	1316	1
0	2930	1320	1
0	2940	1324	1
0	2950	1328	1
0	2959	1332	1
0	2970	1336	1
0	2975	1340	1
0	2983	1344	1
0	2992	1348	1
0	3003	1352	1
0	3012	1356	1
0	3017	1360	1
0	3026	1364	1
0	3037	1368	1
0	3048	1372	1
0	3058	1376	1
0	3063	1380	1
0	3071	1384	1
0	3081	1388	1
0	3093	1392	1
0	3103	1396	1
0	3108	1400	1
0	3119	1404	1
0	3128	1408	1
0	3137	1412	1
0	3147	1416	1
0	3152	1420	1
0	3161	1424	1
0	3171	1428	1
0	3182	1432	1
0	3194	1436	1
0	3199	1440	1
0	3208	1444	1
0	3218	1448	1
0	3229	1452	1
0	3238	1456	1
0	3243	1460	1
0	3251	1464	1
0	3261	1468	1
0	3271	1472	1
0	3284	1476	1
0	3289	1480	1
0	3297	1484	1
0	3306	1488	1
0	3315	1492	1
0	3325	1496	1
0	3330	1500	1
0	3339	1504	1
0	3349	1508	1
0	3361	1512	1
0	3370	1516	1
0	3375	1520	1
0	3383	1524	1
0	3392	1528	1
0	3402	1532	1
0	3413	1536	1
0	3418	1540	1
0	3429	1544	1
0	3438	1548	1
0	3447	1552	1
0	3457	1556	1
0	3462	1560	1
0	3472	1564	1
0	3483	1568	1
0	3494	1572	1
0	3507	1576	1
0	3512	1580	1
0	3520	1584	1
0	3529	1588	1
0	3538	1592	1
0	3547	1596	1
0	3552	1600	1
0	3561	1604	1
0	3571	1608	1
0	3581	1612	1
0	3592	1616	1
0	3597	1620	1
0	3608	1624	1
0	3617	1628	1
0	3627	1632	1
0	3638	1636	1
0	3643	1640	1
0	3652	1644	1
0	3661	1648	1
0	3670	1652	1
0	3679	1656	1
0	3684	1660	1
0	3693	1664	1
0	3705	1668	1
0	3714	1672	1
0	3724	1676	1
0	3729	1680	1
0	3739	1684	1
0	3751	1688	1
0	3760	1692	1
0	3770	1696	1
0	3775	1700	1
0	3785	1704	1
0	3796	1708	1
0	3807	1712	1
0	3817	1716	1
0	3822	1720	1
0	3831	1724	1
0	3841	1728	1
0	3851	1732	1
0	3863	1736	1
0	3868	1740	1
0	3876	1744	1
0	3886	1748	1
0	3897	1752	1
0	3908	1756	1
0	3913	1760	1
0	3922	1764	1
0	3932	1768	1
0	3942	1772	1
0	3952	1776	1
0	3957	1780	1
0	3968	1784	1
0	3977	1788	1
0	3986	1792	1
0	3996	1796	1
0	4001	1800	1
0	4011	1804	1
0	4021	1808	1
0	4030	1812	1
0	4041	1816	1
0	4046	1820	1
0	4054	1824	1
0	4063	1828	1
0	4073	1832	1
0	4085	1836	1
0	4090	1840	1
0	4099	1844	1
0	4110	1848	1
0	4122	1852	1
0	4132	1856	1
0	4137	1860	1
0	4146	1864	1
0	4156	1868	1
0	4167	1872	1
0	4178	1876	1
0	4183	1880	1
0	4193	1884	1
0	4204	1888	1
0	4214	1892	1
0	4225	1896	1
0	4230	1900	1
0	4238	1904	1
0	4247	1908	1
0	4256	1912	1
0	4265	1916	1
0	4270	1920	1
0	4278	1924	1
0	4288	1928	1
0	4299	1932	1
0	4311	1936	1
0	4316	1940	1
0	4324	1944	1
0	4333	1948	1
0	4344	1952	1
0	4353	1956	1
0	4358	1960	1
0	4366	1964	1
0	4375	1968	1
0	4386	1972	1
0	4396	1976	1
0	4401	1980	1
0	4411	1984	1
0	4422	1988	1
0	4433	1992	1
0	4443	1996	1
0	4448	2000	1
0	4458	2004	1
0	4467	2008	1
0	4476	2012	1
0	4485	2016	1
0	4490	2020	1
0	4499	2024	1
0	4511	2028	1
0	4520	2032	1
0	4529	2036	1
0	4534	2040	1
0	4543	2044	1
0	4553	2048	1
0	4563	2052	1
0	4576	2056	1
0	4581	2060	1
0	4590	2064	1
0	4600	2068	1
0	4609	2072	1
0	4618	2076	1
0	4623	2080	1
0	4632	2084	1
0	4642	2088	1
0	4652	2092	1
0	4663	2096	1
0	4668	2100	1
0	4678	2104	1
0	4689	2108	1
0	4699	2112	1
0	4709	2116	1
0	4714	2120	1
0	4723	2124	1
0	4732	2128	1
0	4742	2132	1
0	4754	2136	1
0	4759	2140	1
0	4767	2144	1
0	4776	2148	1
0	4785	2152	1
0	4794	2156	1
0	4799	2160	1
0	4808	2164	1
0	4819	2168	1
0	4831	2172	1
0	4840	2176	1
0	4845	2180	1
0	4853	2184	1
0	4862	2188	1
0	4871	2192	1
0	4881	2196	1
0	4886	2200	1
0	4896	2204	1
0	4906	2208	1
0	4915	2212	1
0	4924	2216	1
0	4929	2220	1
0	4937	2224	1
0	4948	2228	1
0	4958	2232	1
0	4968	2236	1
0	4973	2240	1
0	4981	2244	1
0	4990	2248	1
0	5000	2252	1
0	5011	2256	1
0	5016	2260	1
0	5026	2264	1
0	5037	2268	1
0	5047	2272	1
0	5058	2276	1
0	5063	2280	1
0	5071	2284	1
0	5080	2288	1
0	5090	2292	1
0	5101	2296	1
0	5106	2300	1
0	5116	2304	1
0	5126	2308	1
0	5137	2312	1
0	5147	2316	1
0	5152	2320	1
0	5161	2324	1
0	5171	2328	1
0	5182	2332	1
0	5192	2336	1
0	5197	2340	1
0	5206	2344	1
0	5217	2348	1
0	5230	2352	1
0	5239	2356	1
0	5244	2360	1
0	5252	2364	1
0	5263	2368	1
0	5272	2372	1
0	5282	2376	1
0	5287	2380	1
0	5296	2384	1
0	5306	2388	1
0	5317	2392	1
0	5328	2396	1
0	5333	2400	1
0	5342	2404	1
0	5352	2408	1
0	5363	2412	1
0	5374	2416	1
0	5379	2420	1
0	5389	2424	1
0	5401	2428	1
0	5411	2432	1
0	5421	2436	1
0	5426	2440	1
0	5435	2444	1
0	5447	2448	1
0	5457	2452	1
0	5468	2456	1
0	5473	2460	1
0	5482	2464	1
0	5492	2468	1
0	5504	2472	1
0	5513	2476	1
0	5518	2480	1
0	5526	2484	1
0	5535	2488	1
0	5546	2492	1
0	5555	2496	1
0	5560	2500	1
0	5569	2504	1
0	5579	2508	1
0	5588	2512	1
0	5598	2516	1
0	5603	2520	1
0	5613	2524	1
0	5623	2528	1
0	5634	2532	1
0	5643	2536	1
0	5648	2540	1
0	5656	2544	1
0	5665	2548	1
0	5674	2552	1
0	5683	2556	1
0	5688	2560	1
0	5696	2564	1
0	5705	2568	1
0	5715	2572	1
0	5726	2576	1
0	5731	2580	1
0	5740	2584	1
0	5751	2588	1
0	5760	2592	1
0	5769	2596	1
0	5774	2600	1
0	5784	2604	1
0	5793	2608	1
0	5802	2612	1
0	5812	2616	1
0	5817	2620	1
0	5827	2624	1
0	5838	2628	1
0	5848	2632	1
0	5857	2636	1
0	5862	2640	1
0	5870	2644	1
0	5879	2648	1
0	5889	2652	1
0	5900	2656	1
0	5905	2660	1
0	5915	2664	1
0	5927	2668	1
0	5936	2672	1
0	5945	2676	1
0	5950	2680	1
0	5959	2684	1
0	5970	2688	1
0	5981	2692	1
0	5992	2696	1
0	5997	2700	1
0	6007	2704	1
0	6018	2708	1
0	6028	2712	1
0	6038	2716	1
0	6043	2720	1
0	6053	2724	1
0	6063	2728	1
0	6072	2732	1
0	6081	2736	1
0	6086	2740	1
0	6094	2744	1
0	6104	2748	1
0	6114	2752	1
0	6125	2756	1
0	6130	2760	1
0	6138	2764	1
0	6147	2768	1
0	6157	2772	1
0	6168	2776	1
0	6173	2780	1
0	6182	2784	1
0	6191	2788	1
0	6201	2792	1
0	6211	2796	1
0	6216	2800	1
0	6225	2804	1
0	6236	2808	1
0	6247	2812	1
0	6257	2816	1
0	6262	2820	1
0	6271	2824	1
0	6282	2828	1
0	6293	2832	1
0	6304	2836	1
0	6309	2840	1
0	6319	2844	1
0	6329	2848	1
0	6339	2852	1
0	6349	2856	1
0	6354	2860	1
0	6364	2864	1
0	6373	2868	1
0	6382	2872	1
0	6391	2876	1
0	6396	2880	1
0	6404	2884	1
0	6414	2888	1
0	6424	2892	1
0	6434	2896	1
0	6439	2900	1
0	6450	2904	1
0	6459	2908	1
0	6468	2912	1
0	6478	2916	1
0	6483	2920	1
0	6493	2924	1
0	6505	2928	1
0	6515	2932	1
0	6526	2936	1
0	6531	2940	1
0	6540	2944	1
0	6550	2948	1
0	6561	2952	1
0	6571	2956	1
0	6576	2960	1
0	6585	2964	1
0	6596	2968	1
0	6607	2972	1
0	6618	2976	1
0	6623	2980	1
0	6633	2984	1
0	6645	2988	1
0	6655	2992	1
0	6665	2996	1
0	6670	3000	1
0	6679	3004	1
0	6691	3008	1
0	6700	3012	1
0	6710	3016	1
0	6715	3020	1
0	6725	3024	1
0	6737	3028	1
0	6746	3032	1
0	6756	3036	1
0	6761	3040	1
0	6771	3044	1
0	6782	3048	1
0	6793	3052	1
0	6804	3056	1
0	6809	3060	1
0	6818	3064	1
0	6828	3068	1
0	6839	3072	1
0	6850	3076	1
0	6855	3080	1
0	6865	3084	1
0	6876	3088	1
0	6887	3092	1
0	6898	3096	1
0	6903	3100	1
0	6912	3104	1
0	6922	3108	1
0	6932	3112	1
0	6942	3116	1
0	6947	3120	1
0	6957	3124	1
0	6968	3128	1
0	6979	3132	1
0	6990	3136	1
0	6995	3140	1
0	7005	3144	1
0	7017	3148	1
0	7026	3152	1
0	7035	3156	1
0	7040	3160	1
0	7048	3164	1
0	7057	3168	1
0	7066	3172	1
0	7076	3176	1
0	7081	3180	1
0	7090	3184	1
0	7101	3188	1
0	7110	3192	1
0	7119	3196	1
0	7124	3200	1
0	7134	3204	1
0	7143	3208	1
0	7152	3212	1
0	7162	3216	1
0	7167	3220	1
0	7178	3224	1
0	7187	3228	1
0	7196	3232	1
0	7206	3236	1
0	7211	3240	1
0	7221	3244	1
0	7231	3248	1
0	7240	3252	1
0	7249	3256	1
0	7254	3260	1
0	7263	3264	1
0	7273	3268	1
0	7282	3272	1
0	7291	3276	1
0	7296	3280	1
0	7306	3284	1
0	7315	3288	1
0	7324	3292	1
0	7333	3296	1
0	7338	3300	1
0	7346	3304	1
0	7356	3308	1
0	7366	3312	1
0	7376	3316	1
0	7381	3320	1
0	7390	3324	1
0	7399	3328	1
0	7409	3332	1
0	7421	3336	1
0	7426	3340	1
0	7434	3344	1
0	7443	3348	1
0	7452	3352	1
0	7461	3356	1
0	7466	3360	1
0	7475	3364	1
0	7486	3368	1
0	7497	3372	1
0	7509	3376	1
0	7514	3380	1
0	7522	3384	1
0	7531	3388	1
0	7541	3392	1
0	7551	3396	1
0	7556	3400	1
0	7566	3404	1
0	7575	3408	1
0	7584	3412	1
0	7593	3416	1
0	7598	3420	1
0	7606	3424	1
0	7616	3428	1
0	7626	3432	1
0	7635	3436	1
0	7640	3440	1
0	7648	3444	1
0	7658	3448	1
0	7670	3452	1
0	7680	3456	1
0	7685	3460	1
0	7695	3464	1
0	7705	3468	1
0	7714	3472	1
0	7723	3476	1
0	7728	3480	1
0	7736	3484	1
0	7745	3488	1
0	7754	3492	1
0	7764	3496	1
0	7769	3500	1
0	7778	3504	1
0	7787	3508	1
0	7797	3512	1
0	7809	3516	1
0	7814	3520	1
0	7822	3524	1
0	7831	3528	1
0	7841	3532	1
0	7853	3536	1
0	7858	3540	1
0	7867	3544	1
0	7877	3548	1
0	7886	3552	1
0	7896	3556	1
0	7901	3560	1
0	7911	3564	1
0	7924	3568	1
0	7933	3572	1
0	7942	3576	1
0	7947	3580	1
0	7955	3584	1
0	7964	3588	1
0	7975	3592	1
0	7984	3596	1
0	7989	3600	1
1	2	4	1
1	14	8	1
1	23	12	1
1	32	16	1
1	37	20	1
1	45	24	1
1	54	28	1
1	64	32	1
1	75	36	1
1	80	40	1
1	91	44	1
1	101	48	1
1	111	52	1
1	121	56	1
1	126	60	1
1	137	64	1
1	146	68	1
1	155	72	1
1	164	76	1
1	169	80	1
1	178	84	1
1	190	88	1
1	200	92	1
1	212	96	1
1	217	100	1
1	225	104	1
1	234	108	1
1	245	112	1
1	254	116	1
1	259	120	1
1	267	124	1
1	276	128	1
1	285	132	1
1	294	136	1
1	299	140	1
1	308	144	1
1	318	148	1
1	328	152	1
1	341	156	1
1	346	160	1
1	354	164	1
1	363	168	1
1	373	172	1
1	385	176	1
1	390	180	1
1	399	184	1
1	410	188	1
1	421	192	1
1	432	196	1
1	437	200	1
1	448	204	1
1	458	208	1
1	468	212	1
1	477	216	1
1	482	220	1
1	491	224	1
1	502	228	1
1	513	232	1
1	526	236	1
1	531	240	1
1	539	244	1
1	549	248	1
1	559	252	1
1	568	256	1
1	573	260	1
1	582	264	1
1	594	268	1
1	603	272	1
1	612	276	1
1	617	280	1
1	626	284	1
1	637	288	1
1	648	292	1
1	660	296	1
1	665	300	1
1	675	304	1
1	684	308	1
1	693	312	1
1	702	316	1
1	707	320	1
1	715	324	1
1	725	328	1
1	736	332	1
1	747	336	1
1	752	340	1
1	763	344	1
1	772	348	1
1	782	352	1
1	792	356	1
1	797	360	1
1	806	364	1
1	816	368	1
1	826	372	1
1	839	376	1
1	844	380	1
1	853	384	1
1	863	388	1
1	873	392	1
1	885	396	1
1	890	400	1
1	898	404	1
1	908	408	1
1	918	412	1
1	927	416	1
1	932	420	1
1	940	424	1
1	949	428	1
1	960	432	1
1	969	436	1
1	974	440	1
1	982	444	1
1	992	448	1
1	1003	452	1
1	1014	456	1
1	1019	460	1
1	1028	464	1
1	1039	468	1
1	1049	472	1
1	1060	476	1
1	1065	480	1
1	1076	484	1
1	1085	488	1
1	1095	492	1
1	1106	496	1
1	1111	500	1
1	1122	504	1
1	1132	508	1
1	1143	512	1
1	1154	516	1
1	1159	520	1
1	1169	524	1
1	1180	528	1
1	1192	532	1
1	1203	536	1
1	1208	540	1
1	1216	544	1
1	1226	548	1
1	1237	552	1
1	1249	556	1
1	1254	560	1
1	1263	564	1
1	1274	568	1
1	1285	572	1
1	1296	576	1
1	1301	580	1
1	1310	584	1
1	1321	588	1
1	1330	592	1
1	1341	596	1
1	1346	600	1
1	1354	604	1
1	1363	608	1
1	1372	612	1
1	1382	616	1
1	1387	620	1
1	1398	624	1
1	1408	628	1
1	1418	632	1
1	1428	636	1
1	1433	640	1
1	1442	644	1
1	1453	648	1
1	1462	652	1
1	1471	656	1
1	1476	660	1
1	1485	664	1
1	1497	668	1
1	1506	672	1
1	1515	676	1
1	1520	680	1
1	1528	684	1
1	1537	688	1
1	1548	692	1
1	1557	696	1
1	1562	700	1
1	1571	704	1
1	1583	708	1
1	1592	712	1
1	1601	716	1
1	1606	720	1
1	1614	724	1
1	1623	728	1
1	1633	732	1
1	1644	736	1
1	1649	740	1
1	1658	744	1
1	1668	748	1
1	1679	752	1
1	1689	756	1
1	1694	760	1
1	1702	764	1
1	1713	768	1
1	1722	772	1
1	1731	776	1
1	1736	780	1
1	1745	784	1
1	1756	788	1
1	1766	792	1
1	1776	796	1
1	1781	800	1
1	1791	804	1
1	1804	808	1
1	1813	812	1
1	1822	816	1
1	1827	820	1
1	1835	824	1
1	1844	828	1
1	1854	832	1
1	1865	836	1
1	1870	840	1
1	1880	844	1
1	1892	848	1
1	1902	852	1
1	1913	856	1
1	1918	860	1
1	1927	864	1
1	1937	868	1
1	1949	872	1
1	1958	876	1
1	1963	880	1
1	1972	884	1
1	1983	888	1
1	1993	892	1
1	2003	896	1
1	2008	900	1
1	2018	904	1
1	2029	908	1
1	2041	912	1
1	2050	916	1
1	2055	920	1
1	2063	924	1
1	2074	928	1
1	2083	932	1
1	2093	936	1
1	2098	940	1
1	2107	944	1
1	2117	948	1
1	2129	952	1
1	2138	956	1
1	2143	960	1
1	2151	964	1
1	2161	968	1
1	2171	972	1
1	2180	976	1
1	2185	980	1
1	2194	984	1
1	2204	988	1
1	2214	992	1
1	2226	996	1
1	2231	1000	1
1	2239	1004	1
1	2248	1008	1
1	2258	1012	1
1	2268	1016	1
1	2273	1020	1
1	2281	1024	1
1	2291	1028	1
1	2302	1032	1
1	2312	1036	1
1	2317	1040	1
1	2325	1044	1
1	2334	1048	1
1	2344	1052	1
1	2355	1056	1
1	2360	1060	1
1	2370	1064	1
1	2382	1068	1
1	2391	1072	1
1	2400	1076	1
1	2405	1080	1
1	2414	1084	1
1	2427	1088	1
1	2436	1092	1
1	2445	1096	1
1	2450	1100	1
1	2458	1104	1
1	2467	1108	1
1	2477	1112	1
1	2487	1116	1
1	2492	1120	1
1	2501	1124	1
1	2512	1128	1
1	2523	1132	1
1	2533	1136	1
1	2538	1140	1
1	2546	1144	1
1	2555	1148	1
1	2564	1152	1
1	2574	1156	1
1	2579	1160	1
1	2588	1164	1
1	2599	1168	1
1	2608	1172	1
1	2618	1176	1
1	2623	1180	1
1	2632	1184	1
1	2642	1188	1
1	2653	1192	1
1	2663	1196	1
1	2668	1200	1
1	2676	1204	1
1	2686	1208	1
1	2698	1212	1
1	2707	1216	1
1	2712	1220	1
1	2720	1224	1
1	2730	1228	1
1	2740	1232	1
1	2749	1236	1
1	2754	1240	1
1	2763	1244	1
1	2774	1248	1
1	2785	1252	1
1	2795	1256	1
1	2800	1260	1
1	2808	1264	1
1	2817	1268	1
1	2827	1272	1
1	2837	1276	1
1	2842	1280	1
1	2851	1284	1
1	2863	1288	1
1	2872	1292	1
1	2881	1296	1
1	2886	1300	1
1	2895	1304	1
1	2907	1308	1
1	2916	1312	1
1	2926	1316	1
1	2931	1320	1
1	2941	1324	1
1	2951	1328	1
1	2960	1332	1
1	2971	1336	1
1	2976	1340	1
1	2984	1344	1
1	2993	1348	1
1	3004	1352	1
1	3013	1356	1
1	3018	1360	1
1	3027	1364	1
1	3038	1368	1
1	3049	1372	1
1	3059	1376	1
1	3064	1380	1
1	3072	1384	1
1	3082	1388	1
1	3094	1392	1
1	3104	1396	1
1	3109	1400	1
1	3120	1404	1
1	3129	1408	1
1	3138	1412	1
1	3148	1416	1
1	3153	1420	1
1	3162	1424	1
1	3172	1428	1
1	3183	1432	1
1	3195	1436	1
1	3200	1440	1
1	3209	1444	1
1	3219	1448	1
1	3230	1452	1
1	3239	1456	1
1	3244	1460	1
1	3252	1464	1
1	3262	1468	1
1	3272	1472	1
1	3285	1476	1
1	3290	1480	1
1	3298	1484	1
1	3307	1488	1
1	3316	1492	1
1	3326	1496	1
1	3331	1500	1
1	3340	1504	1
1	3350	1508	1
1	3362	1512	1
1	3371	1516	1
1	3376	1520	1
1	3384	1524	1
1	3393	1528	1
1	3403	1532	1
1	3414	1536	1
1	3419	1540	1
1	3430	1544	1
1	3439	1548	1
1	3448	1552	1
1	3458	1556	1
1	3463	1560	1
1	3473	1564	1
1	3484	1568	1
1	3495	1572	1
1	3508	1576	1
1	3513	1580	1
1	3521	1584	1
1	3530	1588	1
1	3539	1592	1
1	3548	1596	1
1	3553	1600	1
1	3562	1604	1
1	3572	1608	1
1	3582	1612	1
1	3593	1616	1
1	3598	1620	1
1	3609	1624	1
1	3618	1628	1
1	3628	1632	1
1	3639	1636	1
1	3644	1640	1
1	3653	1644	1
1	3662	1648	1
1	3671	1652	1
1	3680	1656	1
1	3685	1660	1
1	3694	1664	1
1	3706	1668	1
1	3715	1672	1
1	3725	1676	1
1	3730	1680	1
1	3740	1684	1
1	3752	1688	1
1	3761	1692	1
1	3771	1696	1
1	3776	1700	1
1	3786	1704	1
1	3797	1708	1
1	3808	1712	1
1	3818	1716	1
1	3823	1720	1
1	3832	1724	1
1	3842	1728	1
1	3852	1732	1
1	3864	1736	1
1	3869	1740	1
1	3877	1744	1
1	3887	1748	1
1	3898	1752	1
1	3909	1756	1
1	3914	1760	1
1	3923	1764	1
1	3933	1768	1
1	3943	1772	1
1	3953	1776	1
1	3958	1780	1
1	3969	1784	1
1	3978	1788	1
1	3987	1792	1
1	3997	1796	1
1	4002	1800	1
1	4012	1804	1
1	4022	1808	1
1	4031	1812	1
1	4042	1816	1
1	4047	1820	1
1	4055	1824	1
1	4064	1828	1
1	4074	1832	1
1	4086	1836	1
1	4091	1840	1
1	4100	1844	1
1	4111	1848	1
1	4123	1852	1
1	4133	1856	1
1	4138	1860	1
1	4147	1864	1
1	4157	1868	1
1	4168	1872	1
1	4179	1876	1
1	4184	1880	1
1	4194	1884	1
1	4205	1888	1
1	4215	1892	1
1	4226	1896	1
1	4231	1900	1
1	4239	1904	1
1	4248	1908	1
1	4257	1912	1
1	4266	1916	1
1	4271	1920	1
1	4279	1924	1
1	4289	1928	1
1	4300	1932	1
1	4312	1936	1
1	4317	1940	1
1	4325	1944	1
1	4334	1948	1
1	4345	1952	1
1	4354	1956	1
1	4359	1960	1
1	4367	1964	1
1	4376	1968	1
1	4387	1972	1
1	4397	1976	1
1	4402	1980	1
1	4412	1984	1
1	4423	1988	1
1	4434	1992	1
1	4444	1996	1
1	4449	2000	1
1	4459	2004	1
1	4468	2008	1
1	4477	2012	1
1	4486	2016	1
1	4491	2020	1
1	4500	2024	1
1	4512	2028	1
1	4521	2032	1
1	4530	2036	1
1	4535	2040	1
1	4544	2044	1
1	4554	2048	1
1	4564	2052	1
1	4577	2056	1
1	4582	2060	1
1	4591	2064	1
1	4601	2068	1
1	4610	2072	1
1	4619	2076	1
1	4624	2080	1
1	4633	2084	1
1	4643	2088	1
1	4653	2092	1
1	4664	2096	1
1	4669	2100	1
1	4679	2104	1
1	4690	2108	1
1	4700	2112	1
1	4710	2116	1
1	4715	2120	1
1	4724	2124	1
1	4733	2128	1
1	4743	2132	1
1	4755	2136	1
1	4760	2140	1
1	4768	2144	1
1	4777	2148	1
1	4786	2152	1
1	4795	2156	1
1	4800	2160	1
1	4809	2164	1
1	4820	2168	1
1	4832	2172	1
1	4841	2176	1
1	4846	2180	1
1	4854	2184	1
1	4863	2188	1
1	4872	2192	1
1	4882	2196	1
1	4887	2200	1
1	4897	2204	1
1	4907	2208	1
1	4916	2212	1
1	4925	2216	1
1	4930	2220	1
1	4938	2224	1
1	4949	2228	1
1	4959	2232	1
1	4969	2236	1
1	4974	2240	1
1	4982	2244	1
1	4991	2248	1
1	5001	2252	1
1	5012	2256	1
1	5017	2260	1
1	5027	2264	1
1	5038	2268	1
1	5048	2272	1
1	5059	2276	1
1	5064	2280	1
1	5072	2284	1
1	5081	2288	1
1	5091	2292	1
1	5102	2296	1
1	5107	2300	1
1	5117	2304	1
1	5127	2308	1
1	5138	2312	1
1	5148	2316	1
1	5153	2320	1
1	5162	2324	1
1	5172	2328	1
1	5183	2332	1
1	5193	2336	1
1	5198	2340	1
1	5207	2344	1
1	5218	2348	1
1	5231	2352	1
1	5240	2356	1
1	5245	2360	1
1	5253	2364	1
1	5264	2368	1
1	5273	2372	1
1	5283	2376	1
1	5288	2380	1
1	5297	2384	1
1	5307	2388	1
1	5318	2392	1
1	5329	2396	1
1	5334	2400	1
1	5343	2404	1
1	5353	2408	1
1	5364	2412	1
1	5375	2416	1
1	5380	2420	1
1	5390	2424	1
1	5402	2428	1
1	5412	2432	1
1	5422	2436	1
1	5427	2440	1
1	5436	2444	1
1	5448	2448	1
1	5458	2452	1
1	5469	2456	1
1	5474	2460	1
1	5483	2464	1
1	5493	2468	1
1	5505	2472	1
1	5514	2476	1
1	5519	2480	1
1	5527	2484	1
1	5536	2488	1
1	5547	2492	1
1	5556	2496	1
1	5561	2500	1
1	5570	2504	1
1	5580	2508	1
1	5589	2512	1
1	5599	2516	1
1	5604	2520	1
1	5614	2524	1
1	5624	2528	1
1	5635	2532	1
1	5644	2536	1
1	5649	2540	1
1	5657	2544	1
1	5666	2548	1
1	5675	2552	1
1	5684	2556	1
1	5689	2560	1
1	5697	2564	1
1	5706	2568	1
1	5716	2572	1
1	5727	2576	1
1	5732	2580	1
1	5741	2584	1
1	5752	2588	1
1	5761	2592	1
1	5770	2596	1
1	5775	2600	1
1	5785	2604	1
1	5794	2608	1
1	5803	2612	1
1	5813	2616	1
1	5818	2620	1
1	5828	2624	1
1	5839	2628	1
1	5849	2632	1
1	5858	2636	1
1	5863	2640	1
1	5871	2644	1
1	5880	2648	1
1	5890	2652	1
1	5901	2656	1
1	5906	2660	1
1	5916	2664	1
1	5928	2668	1
1	5937	2672	1
1	5946	2676	1
1	5951	2680	1
1	5960	2684	1
1	5971	2688	1
1	5982	2692	1
1	5993	2696	1
1	5998	2700	1
1	6008	2704	1
1	6019	2708	1
1	6029	2712	1
1	6039	2716	1
1	6044	2720	1
1	6054	2724	1
1	6064	2728	1
1	6073	2732	1
1	6082	2736	1
1	6087	2740	1
1	6095	2744	1
1	6105	2748	1
1	6115	2752	1
1	6126	2756	1
1	6131	2760	1
1	6139	2764	1
1	6148	2768	1
1	6158	2772	1
1	6169	2776	1
1	6174	2780	1
1	6183	2784	1
1	6192	2788	1
1	6202	2792	1
1	6212	2796	1
1	6217	2800	1
1	6226	2804	1
1	6237	2808	1
1	6248	2812	1
1	6258	2816	1
1	6263	2820	1
1	6272	2824	1
1	6283	2828	1
1	6294	2832	1
1	6305	2836	1
1	6310	2840	1
1	6320	2844	1
1	6330	2848	1
1	6340	2852	1
1	6350	2856	1
1	6355	2860	1
1	6365	2864	1
1	6374	2868	1
1	6383	2872	1
1	6392	2876	1
1	6397	2880	1
1	6405	2884	1
1	6415	2888	1
1	6425	2892	1
1	6435	2896	1
1	6440	2900	1
1	6451	2904	1
1	6460	2908	1
1	6469	2912	1
1	6479	2916	1
1	6484	2920	1
1	6494	2924	1
1	6506	2928	1
1	6516	2932	1
1	6527	2936	1
1	6532	2940	1
1	6541	2944	1
1	6551	2948	1
1	6562	2952	1
1	6572	2956	1
1	6577	2960	1
1	6586	2964	1
1	6597	2968	1
1	6608	2972	1
1	6619	2976	1
1	6624	2980	1
1	6634	2984	1
1	6646	2988	1
1	6656	2992	1
1	6666	2996	1
1	6671	3000	1
1	6680	3004	1
1	6692	3008	1
1	6701	3012	1
1	6711	3016	1
1	6716	3020	1
1	6726	3024	1
1	6738	3028	1
1	6747	3032	1
1	6757	3036	1
1	6762	3040	1
1	6772	3044	1
1	6783	3048	1
1	6794	3052	1
1	6805	3056	1
1	6810	3060	1
1	6819	3064	1
1	6829	3068	1
1	6840	3072	1
1	6851	3076	1
1	6856	3080	1
1	6866	3084	1
1	6877	3088	1
1	6888	3092	1
1	6899	3096	1
1	6904	3100	1
1	6913	3104	1
1	6923	3108	1
1	6933	3112	1
1	6943	3116	1
1	6948	3120	1
1	6958	3124	1
1	6969	3128	1
1	6980	3132	1
1	6991	3136	1
1	6996	3140	1
1	7006	3144	1
1	7018	3148	1
1	7027	3152	1
1	7036	3156	1
1	7041	3160	1
1	7049	3164	1
1	7058	3168	1
1	7067	3172	1
1	7077	3176	1
1	7082	3180	1
1	7091	3184	1
1	7102	3188	1
1	7111	3192	1
1	7120	3196	1
1	7125	3200	1
1	7135	3204	1
1	7144	3208	1
1	7153	3212	1
1	7163	3216	1
1	7168	3220	1
1	7179	3224	1
1	7188	3228	1
1	7197	3232	1
1	7207	3236	1
1	7212	3240	1
1	7222	3244	1
1	7232	3248	1
1	7241	3252	1
1	7250	3256	1
1	7255	3260	1
1	7264	3264	1
1	7274	3268	1
1	7283	3272	1
1	7292	3276	1
1	7297	3280	1
1	7307	3284	1
1	7316	3288	1
1	7325	3292	1
1	7334	3296	1
1	7339	3300	1
1	7347	3304	1
1	7357	3308	1
1	7367	3312	1
1	7377	3316	1
1	7382	3320	1
1	7391	3324	1
1	7400	3328	1
1	7410	3332	1
1	7422	3336	1
1	7427	3340	1
1	7435	3344	1
1	7444	3348	1
1	7453	3352	1
1	7462	3356	1
1	7467	3360	1
1	7476	3364	1
1	7487	3368	1
1	7498	3372	1
1	7510	3376	1
1	7515	3380	1
1	7523	3384	1
1	7532	3388	1
1	7542	3392	1
1	7552	3396	1
1	7557	3400	1
1	7567	3404	1
1	7576	3408	1
1	7585	3412	1
1	7594	3416	1
1	7599	3420	1
1	7607	3424	1
1	7617	3428	1
1	7627	3432	1
1	7636	3436	1
1	7641	3440	1
1	7649	3444	1
1	7659	3448	1
1	7671	3452	1
1	7681	3456	1
1	7686	3460	1
1	7696	3464	1
1	7706	3468	1
1	7715	3472	1
1	7724	3476	1
1	7729	3480	1
1	7737	3484	1
1	7746	3488	1
1	7755	3492	1
1	7765	3496	1
1	7770	3500	1
1	7779	3504	1
1	7788	3508	1
1	7798	3512	1
1	7810	3516	1
1	7815	3520	1
1	7823	3524	1
1	7832	3528	1
1	7842	3532	1
1	7854	3536	1
1	7859	3540	1
1	7868	3544	1
1	7878	3548	1
1	7887	3552	1
1	7897	3556	1
1	7902	3560	1
1	7912	3564	1
1	7925	3568	1
1	7934	3572	1
1	7943	3576	1
1	7948	3580	1
1	7956	3584	1
1	7965	3588	1
1	7976	3592	1
1	7985	3596	1
1	7990	3600	1
2	3	4	1
2	15	8	1
2	24	12	1
2	33	16	1
2	38	20	1
2	46	24	1
2	55	28	1
2	65	32	1
2	76	36	1
2	81	40	1
2	92	44	1
2	102	48	1
2	112	52	1
2	122	56	1
2	127	60	1
2	138	64	1
2	147	68	1
2	156	72	1
2	165	76	1
2	170	80	1
2	179	84	1
2	191	88	1
2	201	92	1
2	213	96	1
2	218	100	1
2	226	104	1
2	235	108	1
2	246	112	1
2	255	116	1
2	260	120	1
2	268	124	1
2	277	128	1
2	286	132	1
2	295	136	1
2	300	140	1
2	309	144	1
2	319	148	1
2	329	152	1
2	342	156	1
2	347	160	1
2	355	164	1
2	364	168	1
2	374	172	1
2	386	176	1
2	391	180	1
2	400	184	1
2	411	188	1
2	422	192	1
2	433	196	1
2	438	200	1
2	449	204	1
2	459	208	1
2	469	212	1
2	478	216	1
2	483	220	1
2	492	224	1
2	503	228	1
2	514	232	1
2	527	236	1
2	532	240	1
2	540	244	1
2	550	248	1
2	560	252	1
2	569	256	1
2	574	260	1
2	583	264	1
2	595	268	1
2	604	272	1
2	613	276	1
2	618	280	1
2	627	284	1
2	638	288	1
2	649	292	1
2	661	296	1
2	666	300	1
2	676	304	1
2	685	308	1
2	694	312	1
2	703	316	1
2	708	320	1
2	716	324	1
2	726	328	1
2	737	332	1
2	748	336	1
2	753	340	1
2	764	344	1
2	773	348	1
2	783	352	1
2	793	356	1
2	798	360	1
2	807	364	1
2	817	368	1
2	827	372	1
2	840	376	1
2	845	380	1
2	854	384	1
2	864	388	1
2	874	392	1
2	886	396	1
2	891	400	1
2	899	404	1
2	909	408	1
2	919	412	1
2	928	416	1
2	933	420	1
2	941	424	1
2	950	428	1
2	961	432	1
2	970	436	1
2	975	440	1
2	983	444	1
2	993	448	1
2	1004	452	1
2	1015	456	1
2	1020	460	1
2	1029	464	1
2	1040	468	1
2	1050	472	1
2	1061	476	1
2	1066	480	1
2	1077	484	1
2	1086	488	1
2	1096	492	1
2	1107	496	1
2	1112	500	1
2	1123	504	1
2	1133	508	1
2	1144	512	1
2	1155	516	1
2	1160	520	1
2	1170	524	1
2	1181	528	1
2	1193	532	1
2	1204	536	1
2	1209	540	1
2	1217	544	1
2	1227	548	1
2	1238	552	1
2	1250	556	1
2	1255	560	1
2	1264	564	1
2	1275	568	1
2	1286	572	1
2	1297	576	1
2	1302	580	1
2	1311	584	1
2	1322	588	1
2	1331	592	1
2	1342	596	1
2	1347	600	1
2	1355	604	1
2	1364	608	1
2	1373	612	1
2	1383	616	1
2	1388	620	1
2	1399	624	1
2	1409	628	1
2	1419	632	1
2	1429	636	1
2	1434	640	1
2	1443	644	1
2	1454	648	1
2	1463	652	1
2	1472	656	1
2	1477	660	1
2	1486	664	1
2	1498	668	1
2	1507	672	1
2	1516	676	1
2	1521	680	1
2	1529	684	1
2	1538	688	1
2	1549	692	1
2	1558	696	1
2	1563	700	1
2	1572	704	1
2	1584	708	1
2	1593	712	1
2	1602	716	1
2	1607	720	1
2	1615	724	1
2	1624	728	1
2	1634	732	1
2	1645	736	1
2	1650	740	1
2	1659	744	1
2	1669	748	1
2	1680	752	1
2	1690	756	1
2	1695	760	1
2	1703	764	1
2	1714	768	1
2	1723	772	1
2	1732	776	1
2	1737	780	1
2	1746	784	1
2	1757	788	1
2	1767	792	1
2	1777	796	1
2	1782	800	1
2	1792	804	1
2	1805	808	1
2	1814	812	1
2	1823	816	1
2	1828	820	1
2	1836	824	1
2	1845	828	1
2	1855	832	1
2	1866	836	1
2	1871	840	1
2	1881	844	1
2	1893	848	1
2	1903	852	1
2	1914	856	1
2	1919	860	1
2	1928	864	1
2	1938	868	1
2	1950	872	1
2	1959	876	1
2	1964	880	1
2	1973	884	1
2	1984	888	1
2	1994	892	1
2	2004	896	1
2	2009	900	1
2	2019	904	1
2	2030	908	1
2	2042	912	1
2	2051	916	1
2	2056	920	1
2	2064	924	1
2	2075	928	1
2	2084	932	1
2	2094	936	1
2	2099	940	1
2	2108	944	1
2	2118	948	1
2	2130	952	1
2	2139	956	1
2	2144	960	1
2	2152	964	1
2	2162	968	1
2	2172	972	1
2	2181	976	1
2	2186	980	1
2	2195	984	1
2	2205	988	1
2	2215	992	1
2	2227	996	1
2	2232	1000	1
2	2240	1004	1
2	2249	1008	1
2	2259	1012	1
2	2269	1016	1
2	2274	1020	1
2	2282	1024	1
2	2292	1028	1
2	2303	1032	1
2	2313	1036	1
2	2318	1040	1
2	2326	1044	1
2	2335	1048	1
2	2345	1052	1
2	2356	1056	1
2	2361	1060	1
2	2371	1064	1
2	2383	1068	1
2	2392	1072	1
2	2401	1076	1
2	2406	1080	1
2	2415	1084	1
2	2428	1088	1
2	2437	1092	1
2	2446	1096	1
2	2451	1100	1
2	2459	1104	1
2	2468	1108	1
2	2478	1112	1
2	2488	1116	1
2	2493	1120	1
2	2502	1124	1
2	2513	1128	1
2	2524	1132	1
2	2534	1136	1
2	2539	1140	1
2	2547	1144	1
2	2556	1148	1
2	2565	1152	1
2	2575	1156	1
2	2580	1160	1
2	2589	1164	1
2	2600	1168	1
2	2609	1172	1
2	2619	1176	1
2	2624	1180	1
2	2633	1184	1
2	2643	1188	1
2	2654	1192	1
2	2664	1196	1
2	2669	1200	1
2	2677	1204	1
2	2687	1208	1
2	2699	1212	1
2	2708	1216	1
2	2713	1220	1
2	2721	1224	1
2	2731	1228	1
2	2741	1232	1
2	2750	1236	1
2	2755	1240	1
2	2764	1244	1
2	2775	1248	1
2	2786	1252	1
2	2796	1256	1
2	2801	1260	1
2	2809	1264	1
2	2818	1268	1
2	2828	1272	1
2	2838	1276	1
2	2843	1280	1
2	2852	1284	1
2	2864	1288	1
2	2873	1292	1
2	2882	1296	1
2	2887	1300	1
2	2896	1304	1
2	2908	1308	1
2	2917	1312	1
2	2927	1316	1
2	2932	1320	1
2	2942	1324	1
2	2952	1328	1
2	2961	1332	1
2	2972	1336	1
2	2977	1340	1
2	2985	1344	1
2	2994	1348	1
2	3005	1352	1
2	3014	1356	1
2	3019	1360	1
2	3028	1364	1
2	3039	1368	1
2	3050	1372	1
2	3060	1376	1
2	3065	1380	1
2	3073	1384	1
2	3083	1388	1
2	3095	1392	1
2	3105	1396	1
2	3110	1400	1
2	3121	1404	1
2	3130	1408	1
2	3139	1412	1
2	3149	1416	1
2	3154	1420	1
2	3163	1424	1
2	3173	1428	1
2	3184	1432	1
2	3196	1436	1
2	3201	1440	1
2	3210	1444	1
2	3220	1448	1
2	3231	1452	1
2	3240	1456	1
2	3245	1460	1
2	3253	1464	1
2	3263	1468	1
2	3273	1472	1
2	3286	1476	1
2	3291	1480	1
2	3299	1484	1
2	3308	1488	1
2	3317	1492	1
2	3327	1496	1
2	3332	1500	1
2	3341	1504	1
2	3351	1508	1
2	3363	1512	1
2	3372	1516	1
2	3377	1520	1
2	3385	1524	1
2	3394	1528	1
2	3404	1532	1
2	3415	1536	1
2	3420	1540	1
2	3431	1544	1
2	3440	1548	1
2	3449	1552	1
2	3459	1556	1
2	3464	1560	1
2	3474	1564	1
2	3485	1568	1
2	3496	1572	1
2	3509	1576	1
2	3514	1580	1
2	3522	1584	1
2	3531	1588	1
2	3540	1592	1
2	3549	1596	1
2	3554	1600	1
2	3563	1604	1
2	3573	1608	1
2	3583	1612	1
2	3594	1616	1
2	3599	1620	1
2	3610	1624	1
2	3619	1628	1
2	3629	1632	1
2	3640	1636	1
2	3645	1640	1
2	3654	1644	1
2	3663	1648	1
2	3672	1652	1
2	3681	1656	1
2	3686	1660	1
2	3695	1664	1
2	3707	1668	1
2	3716	1672	1
2	3726	1676	1
2	3731	1680	1
2	3741	1684	1
2	3753	1688	1
2	3762	1692	1
2	3772	1696	1
2	3777	1700	1
2	3787	1704	1
2	3798	1708	1
2	3809	1712	1
2	3819	1716	1
2	3824	1720	1
2	3833	1724	1
2	3843	1728	1
2	3853	1732	1
2	3865	1736	1
2	3870	1740	1
2	3878	1744	1
2	3888	1748	1
2	3899	1752	1
2	3910	1756	1
2	3915	1760	1
2	3924	1764	1
2	3934	1768	1
2	3944	1772	1
2	3954	1776	1
2	3959	1780	1
2	3970	1784	1
2	3979	1788	1
2	3988	1792	1
2	3998	1796	1
2	4003	1800	1
2	4013	1804	1
2	4023	1808	1
2	4032	1812	1
2	4043	1816	1
2	4048	1820	1
2	4056	1824	1
2	4065	1828	1
2	4075	1832	1
2	4087	1836	1
2	4092	1840	1
2	4101	1844	1
2	4112	1848	1
2	4124	1852	1
2	4134	1856	1
2	4139	1860	1
2	4148	1864	1
2	4158	1868	1
2	4169	1872	1
2	4180	1876	1
2	4185	1880	1
2	4195	1884	1
2	4206	1888	1
2	4216	1892	1
2	4227	1896	1
2	4232	1900	1
2	4240	1904	1
2	4249	1908	1
2	4258	1912	1
2	4267	1916	1
2	4272	1920	1
2	4280	1924	1
2	4290	1928	1
2	4301	1932	1
2	4313	1936	1
2	4318	1940	1
2	4326	1944	1
2	4335	1948	1
2	4346	1952	1
2	4355	1956	1
2	4360	1960	1
2	4368	1964	1
2	4377	1968	1
2	4388	1972	1
2	4398	1976	1
2	4403	1980	1
2	4413	1984	1
2	4424	1988	1
2	4435	1992	1
2	4445	1996	1
2	4450	2000	1
2	4460	2004	1
2	4469	2008	1
2	4478	2012	1
2	4487	2016	1
2	4492	2020	1
2	4501	2024	1
2	4513	2028	1
2	4522	2032	1
2	4531	2036	1
2	4536	2040	1
2	4545	2044	1
2	4555	2048	1
2	4565	2052	1
2	4578	2056	1
2	4583	2060	1
2	4592	2064	1
2	4602	2068	1
2	4611	2072	1
2	4620	2076	1
2	4625	2080	1
2	4634	2084	1
2	4644	2088	1
2	4654	2092	1
2	4665	2096	1
2	4670	2100	1
2	4680	2104	1
2	4691	2108	1
2	4701	2112	1
2	4711	2116	1
2	4716	2120	1
2	4725	2124	1
2	4734	2128	1
2	4744	2132	1
2	4756	2136	1
2	4761	2140	1
2	4769	2144	1
2	4778	2148	1
2	4787	2152	1
2	4796	2156	1
2	4801	2160	1
2	4810	2164	1
2	4821	2168	1
2	4833	2172	1
2	4842	2176	1
2	4847	2180	1
2	4855	2184	1
2	4864	2188	1
2	4873	2192	1
2	4883	2196	1
2	4888	2200	1
2	4898	2204	1
2	4908	2208	1
2	4917	2212	1
2	4926	2216	1
2	4931	2220	1
2	4939	2224	1
2	4950	2228	1
2	4960	2232	1
2	4970	2236	1
2	4975	2240	1
2	4983	2244	1
2	4992	2248	1
2	5002	2252	1
2	5013	2256	1
2	5018	2260	1
2	5028	2264	1
2	5039	2268	1
2	5049	2272	1
2	5060	2276	1
2	5065	2280	1
2	5073	2284	1
2	5082	2288	1
2	5092	2292	1
2	5103	2296	1
2	5108	2300	1
2	5118	2304	1
2	5128	2308	1
2	5139	2312	1
2	5149	2316	1
2	5154	2320	1
2	5163	2324	1
2	5173	2328	1
2	5184	2332	1
2	5194	2336	1
2	5199	2340	1
2	5208	2344	1
2	5219	2348	1
2	5232	2352	1
2	5241	2356	1
2	5246	2360	1
2	5254	2364	1
2	5265	2368	1
2	5274	2372	1
2	5284	2376	1
2	5289	2380	1
2	5298	2384	1
2	5308	2388	1
2	5319	2392	1
2	5330	2396	1
2	5335	2400	1
2	5344	2404	1
2	5354	2408	1
2	5365	2412	1
2	5376	2416	1
2	5381	2420	1
2	5391	2424	1
2	5403	2428	1
2	5413	2432	1
2	5423	2436	1
2	5428	2440	1
2	5437	2444	1
2	5449	2448	1
2	5459	2452	1
2	5470	2456	1
2	5475	2460	1
2	5484	2464	1
2	5494	2468	1
2	5506	2472	1
2	5515	2476	1
2	5520	2480	1
2	5528	2484	1
2	5537	2488	1
2	5548	2492	1
2	5557	2496	1
2	5562	2500	1
2	5571	2504	1
2	5581	2508	1
2	5590	2512	1
2	5600	2516	1
2	5605	2520	1
2	5615	2524	1
2	5625	2528	1
2	5636	2532	1
2	5645	2536	1
2	5650	2540	1
2	5658	2544	1
2	5667	2548	1
2	5676	2552	1
2	5685	2556	1
2	5690	2560	1
2	5698	2564	1
2	5707	2568	1
2	5717	2572	1
2	5728	2576	1
2	5733	2580	1
2	5742	2584	1
2	5753	2588	1
2	5762	2592	1
2	5771	2596	1
2	5776	2600	1
2	5786	2604	1
2	5795	2608	1
2	5804	2612	1
2	5814	2616	1
2	5819	2620	1
2	5829	2624	1
2	5840	2628	1
2	5850	2632	1
2	5859	2636	1
2	5864	2640	1
2	5872	2644	1
2	5881	2648	1
2	5891	2652	1
2	5902	2656	1
2	5907	2660	1
2	5917	2664	1
2	5929	2668	1
2	5938	2672	1
2	5947	2676	1
2	5952	2680	1
2	5961	2684	1
2	5972	2688	1
2	5983	2692	1
2	5994	2696	1
2	5999	2700	1
2	6009	2704	1
2	6020	2708	1
2	6030	2712	1
2	6040	2716	1
2	6045	2720	1
2	6055	2724	1
2	6065	2728	1
2	6074	2732	1
2	6083	2736	1
2	6088	2740	1
2	6096	2744	1
2	6106	2748	1
2	6116	2752	1
2	6127	2756	1
2	6132	2760	1
2	6140	2764	1
2	6149	2768	1
2	6159	2772	1
2	6170	2776	1
2	6175	2780	1
2	6184	2784	1
2	6193	2788	1
2	6203	2792	1
2	6213	2796	1
2	6218	2800	1
2	6227	2804	1
2	6238	2808	1
2	6249	2812	1
2	6259	2816	1
2	6264	2820	1
2	6273	2824	1
2	6284	2828	1
2	6295	2832	1
2	6306	2836	1
2	6311	2840	1
2	6321	2844	1
2	6331	2848	1
2	6341	2852	1
2	6351	2856	1
2	6356	2860	1
2	6366	2864	1
2	6375	2868	1
2	6384	2872	1
2	6393	2876	1
2	6398	2880	1
2	6406	2884	1
2	6416	2888	1
2	6426	2892	1
2	6436	2896	1
2	6441	2900	1
2	6452	2904	1
2	6461	2908	1
2	6470	2912	1
2	6480	2916	1
2	6485	2920	1
2	6495	2924	1
2	6507	2928	1
2	6517	2932	1
2	6528	2936	1
2	6533	2940	1
2	6542	2944	1
2	6552	2948	1
2	6563	2952	1
2	6573	2956	1
2	6578	2960	1
2	6587	2964	1
2	6598	2968	1
2	6609	2972	1
2	6620	2976	1
2	6625	2980	1
2	6635	2984	1
2	6647	2988	1
2	6657	2992	1
2	6667	2996	1
2	6672	3000	1
2	6681	3004	1
2	6693	3008	1
2	6702	3012	1
2	6712	3016	1
2	6717	3020	1
2	6727	3024	1
2	6739	3028	1
2	6748	3032	1
2	6758	3036	1
2	6763	3040	1
2	6773	3044	1
2	6784	3048	1
2	6795	3052	1
2	6806	3056	1
2	6811	3060	1
2	6820	3064	1
2	6830	3068	1
2	6841	3072	1
2	6852	3076	1
2	6857	3080	1
2	6867	3084	1
2	6878	3088	1
2	6889	3092	1
2	6900	3096	1
2	6905	3100	1
2	6914	3104	1
2	6924	3108	1
2	6934	3112	1
2	6944	3116	1
2	6949	3120	1
2	6959	3124	1
2	6970	3128	1
2	6981	3132	1
2	6992	3136	1
2	6997	3140	1
2	7007	3144	1
2	7019	3148	1
2	7028	3152	1
2	7037	3156	1
2	7042	3160	1
2	7050	3164	1
2	7059	3168	1
2	7068	3172	1
2	7078	3176	1
2	7083	3180	1
2	7092	3184	1
2	7103	3188	1
2	7112	3192	1
2	7121	3196	1
2	7126	3200	1
2	7136	3204	1
2	7145	3208	1
2	7154	3212	1
2	7164	3216	1
2	7169	3220	1
2	7180	3224	1
2	7189	3228	1
2	7198	3232	1
2	7208	3236	1
2	7213	3240	1
2	7223	3244	1
2	7233	3248	1
2	7242	3252	1
2	7251	3256	1
2	7256	3260	1
2	7265	3264	1
2	7275	3268	1
2	7284	3272	1
2	7293	3276	1
2	7298	3280	1
2	7308	3284	1
2	7317	3288	1
2	7326	3292	1
2	7335	3296	1
2	7340	3300	1
2	7348	3304	1
2	7358	3308	1
2	7368	3312	1
2	7378	3316	1
2	7383	3320	1
2	7392	3324	1
2	7401	3328	1
2	7411	3332	1
2	7423	3336	1
2	7428	3340	1
2	7436	3344	1
2	7445	3348	1
2	7454	3352	1
2	7463	3356	1
2	7468	3360	1
2	7477	3364	1
2	7488	3368	1
2	7499	3372	1
2	7511	3376	1
2	7516	3380	1
2	7524	3384	1
2	7533	3388	1
2	7543	3392	1
2	7553	3396	1
2	7558	3400	1
2	7568	3404	1
2	7577	3408	1
2	7586	3412	1
2	7595	3416	1
2	7600	3420	1
2	7608	3424	1
2	7618	3428	1
2	7628	3432	1
2	7637	3436	1
2	7642	3440	1
2	7650	3444	1
2	7660	3448	1
2	7672	3452	1
2	7682	3456	1
2	7687	3460	1
2	7697	3464	1
2	7707	3468	1
2	7716	3472	1
2	7725	3476	1
2	7730	3480	1
2	7738	3484	1
2	7747	3488	1
2	7756	3492	1
2	7766	3496	1
2	7771	3500	1
2	7780	3504	1
2	7789	3508	1
2	7799	3512	1
2	7811	3516	1
2	7816	3520	1
2	7824	3524	1
2	7833	3528	1
2	7843	3532	1
2	7855	3536	1
2	7860	3540	1
2	7869	3544	1
2	7879	3548	1
2	7888	3552	1
2	7898	3556	1
2	7903	3560	1
2	7913	3564	1
2	7926	3568	1
2	7935	3572	1
2	7944	3576	1
2	7949	3580	1
2	7957	3584	1
2	7966	3588	1
2	7977	3592	1
2	7986	3596	1
2	7991	3600	1
3	4	4	1
3	16	8	1
3	25	12	1
3	34	16	1
3	39	20	1
3	47	24	1
3	56	28	1
3	66	32	1
3	77	36	1
3	82	40	1
3	93	44	1
3	103	48	1
3	113	52	1
3	123	56	1
3	128	60	1
3	139	64	1
3	148	68	1
3	157	72	1
3	166	76	1
3	171	80	1
3	180	84	1
3	192	88	1
3	202	92	1
3	214	96	1
3	219	100	1
3	227	104	1
3	236	108	1
3	247	112	1
3	256	116	1
3	261	120	1
3	269	124	1
3	278	128	1
3	287	132	1
3	296	136	1
3	301	140	1
3	310	144	1
3	320	148	1
3	330	152	1
3	343	156	1
3	348	160	1
3	356	164	1
3	365	168	1
3	375	172	1
3	387	176	1
3	392	180	1
3	401	184	1
3	412	188	1
3	423	192	1
3	434	196	1
3	439	200	1
3	450	204	1
3	460	208	1
3	470	212	1
3	479	216	1
3	484	220	1
3	493	224	1
3	504	228	1
3	515	232	1
3	528	236	1
3	533	240	1
3	541	244	1
3	551	248	1
3	561	252	1
3	570	256	1
3	575	260	1
3	584	264	1
3	596	268	1
3	605	272	1
3	614	276	1
3	619	280	1
3	628	284	1
3	639	288	1
3	650	292	1
3	662	296	1
3	667	300	1
3	677	304	1
3	686	308	1
3	695	312	1
3	704	316	1
3	709	320	1
3	717	324	1
3	727	328	1
3	738	332	1
3	749	336	1
3	754	340	1
3	765	344	1
3	774	348	1
3	784	352	1
3	794	356	1
3	799	360	1
3	808	364	1
3	818	368	1
3	828	372	1
3	841	376	1
3	846	380	1
3	855	384	1
3	865	388	1
3	875	392	1
3	887	396	1
3	892	400	1
3	900	404	1
3	910	408	1
3	920	412	1
3	929	416	1
3	934	420	1
3	942	424	1
3	951	428	1
3	962	432	1
3	971	436	1
3	976	440	1
3	984	444	1
3	994	448	1
3	1005	452	1
3	1016	456	1
3	1021	460	1
3	1030	464	1
3	1041	468	1
3	1051	472	1
3	1062	476	1
3	1067	480	1
3	1078	484	1
3	1087	488	1
3	1097	492	1
3	1108	496	1
3	1113	500	1
3	1124	504	1
3	1134	508	1
3	1145	512	1
3	1156	516	1
3	1161	520	1
3	1171	524	1
3	1182	528	1
3	1194	532	1
3	1205	536	1
3	1210	540	1
3	1218	544	1
3	1228	548	1
3	1239	552	1
3	1251	556	1
3	1256	560	1
3	1265	564	1
3	1276	568	1
3	1287	572	1
3	1298	576	1
3	1303	580	1
3	1312	584	1
3	1323	588	1
3	1332	592	1
3	1343	596	1
3	1348	600	1
3	1356	604	1
3	1365	608	1
3	1374	612	1
3	1384	616	1
3	1389	620	1
3	1400	624	1
3	1410	628	1
3	1420	632	1
3	1430	636	1
3	1435	640	1
3	1444	644	1
3	1455	648	1
3	1464	652	1
3	1473	656	1
3	1478	660	1
3	1487	664	1
3	1499	668	1
3	1508	672	1
3	1517	676	1
3	1522	680	1
3	1530	684	1
3	1539	688	1
3	1550	692	1
3	1559	696	1
3	1564	700	1
3	1573	704	1
3	1585	708	1
3	1594	712	1
3	1603	716	1
3	1608	720	1
3	1616	724	1
3	1625	728	1
3	1635	732	1
3	1646	736	1
3	1651	740	1
3	1660	744	1
3	1670	748	1
3	1681	752	1
3	1691	756	1
3	1696	760	1
3	1704	764	1
3	1715	768	1
3	1724	772	1
3	1733	776	1
3	1738	780	1
3	1747	784	1
3	1758	788	1
3	1768	792	1
3	1778	796	1
3	1783	800	1
3	1793	804	1
3	1806	808	1
3	1815	812	1
3	1824	816	1
3	1829	820	1
3	1837	824	1
3	1846	828	1
3	1856	832	1
3	1867	836	1
3	1872	840	1
3	1882	844	1
3	1894	848	1
3	1904	852	1
3	1915	856	1
3	1920	860	1
3	1929	864	1
3	1939	868	1
3	1951	872	1
3	1960	876	1
3	1965	880	1
3	1974	884	1
3	1985	888	1
3	1995	892	1
3	2005	896	1
3	2010	900	1
3	2020	904	1
3	2031	908	1
3	2043	912	1
3	2052	916	1
3	2057	920	1
3	2065	924	1
3	2076	928	1
3	2085	932	1
3	2095	936	1
3	2100	940	1
3	2109	944	1
3	2119	948	1
3	2131	952	1
3	2140	956	1
3	2145	960	1
3	2153	964	1
3	2163	968	1
3	2173	972	1
3	2182	976	1
3	2187	980	1
3	2196	984	1
3	2206	988	1
3	2216	992	1
3	2228	996	1
3	2233	1000	1
3	2241	1004	1
3	2250	1008	1
3	2260	1012	1
3	2270	1016	1
3	2275	1020	1
3	2283	1024	1
3	2293	1028	1
3	2304	1032	1
3	2314	1036	1
3	2319	1040	1
3	2327	1044	1
3	2336	1048	1
3	2346	1052	1
3	2357	1056	1
3	2362	1060	1
3	2372	1064	1
3	2384	1068	1
3	2393	1072	1
3	2402	1076	1
3	2407	1080	1
3	2416	1084	1
3	2429	1088	1
3	2438	1092	1
3	2447	1096	1
3	2452	1100	1
3	2460	1104	1
3	2469	1108	1
3	2479	1112	1
3	2489	1116	1
3	2494	1120	1
3	2503	1124	1
3	2514	1128	1
3	2525	1132	1
3	2535	1136	1
3	2540	1140	1
3	2548	1144	1
3	2557	1148	1
3	2566	1152	1
3	2576	1156	1
3	2581	1160	1
3	2590	1164	1
3	2601	1168	1
3	2610	1172	1
3	2620	1176	1
3	2625	1180	1
3	2634	1184	1
3	2644	1188	1
3	2655	1192	1
3	2665	1196	1
3	2670	1200	1
3	2678	1204	1
3	2688	1208	1
3	2700	1212	1
3	2709	1216	1
3	2714	1220	1
3	2722	1224	1
3	2732	1228	1
3	2742	1232	1
3	2751	1236	1
3	2756	1240	1
3	2765	1244	1
3	2776	1248	1
3	2787	1252	1
3	2797	1256	1
3	2802	1260	1
3	2810	1264	1
3	2819	1268	1
3	2829	1272	1
3	2839	1276	1
3	2844	1280	1
3	2853	1284	1
3	2865	1288	1
3	2874	1292	1
3	2883	1296	1
3	2888	1300	1
3	2897	1304	1
3	2909	1308	1
3	2918	1312	1
3	2928	1316	1
3	2933	1320	1
3	2943	1324	1
3	2953	1328	1
3	2962	1332	1
3	2973	1336	1
3	2978	1340	1
3	2986	1344	1
3	2995	1348	1
3	3006	1352	1
3	3015	1356	1
3	3020	1360	1
3	3029	1364	1
3	3040	1368	1
3	3051	1372	1
3	3061	1376	1
3	3066	1380	1
3	3074	1384	1
3	3084	1388	1
3	3096	1392	1
3	3106	1396	1
3	3111	1400	1
3	3122	1404	1
3	3131	1408	1
3	3140	1412	1
3	3150	1416	1
3	3155	1420	1
3	3164	1424	1
3	3174	1428	1
3	3185	1432	1
3	3197	1436	1
3	3202	1440	1
3	3211	1444	1
3	3221	1448	1
3	3232	1452	1
3	3241	1456	1
3	3246	1460	1
3	3254	1464	1
3	3264	1468	1
3	3274	1472	1
3	3287	1476	1
3	3292	1480	1
3	3300	1484	1
3	3309	1488	1
3	3318	1492	1
3	3328	1496	1
3	3333	1500	1
3	3342	1504	1
3	3352	1508	1
3	3364	1512	1
3	3373	1516	1
3	3378	1520	1
3	3386	1524	1
3	3395	1528	1
3	3405	1532	1
3	3416	1536	1
3	3421	1540	1
3	3432	1544	1
3	3441	1548	1
3	3450	1552	1
3	3460	1556	1
3	3465	1560	1
3	3475	1564	1
3	3486	1568	1
3	3497	1572	1
3	3510	1576	1
3	3515	1580	1
3	3523	1584	1
3	3532	1588	1
3	3541	1592	1
3	3550	1596	1
3	3555	1600	1
3	3564	1604	1
3	3574	1608	1
3	3584	1612	1
3	3595	1616	1
3	3600	1620	1
3	3611	1624	1
3	3620	1628	1
3	3630	1632	1
3	3641	1636	1
3	3646	1640	1
3	3655	1644	1
3	3664	1648	1
3	3673	1652	1
3	3682	1656	1
3	3687	1660	1
3	3696	1664	1
3	3708	1668	1
3	3717	1672	1
3	3727	1676	1
3	3732	1680	1
3	3742	1684	1
3	3754	1688	1
3	3763	1692	1
3	3773	1696	1
3	3778	1700	1
3	3788	1704	1
3	3799	1708	1
3	3810	1712	1
3	3820	1716	1
3	3825	1720	1
3	3834	1724	1
3	3844	1728	1
3	3854	1732	1
3	3866	1736	1
3	3871	1740	1
3	3879	1744	1
3	3889	1748	1
3	3900	1752	1
3	3911	1756	1
3	3916	1760	1
3	3925	1764	1
3	3935	1768	1
3	3945	1772	1
3	3955	1776	1
3	3960	1780	1
3	3971	1784	1
3	3980	1788	1
3	3989	1792	1
3	3999	1796	1
3	4004	1800	1
3	4014	1804	1
3	4024	1808	1
3	4033	1812	1
3	4044	1816	1
3	4049	1820	1
3	4057	1824	1
3	4066	1828	1
3	4076	1832	1
3	4088	1836	1
3	4093	1840	1
3	4102	1844	1
3	4113	1848	1
3	4125	1852	1
3	4135	1856	1
3	4140	1860	1
3	4149	1864	1
3	4159	1868	1
3	4170	1872	1
3	4181	1876	1
3	4186	1880	1
3	4196	1884	1
3	4207	1888	1
3	4217	1892	1
3	4228	1896	1
3	4233	1900	1
3	4241	1904	1
3	4250	1908	1
3	4259	1912	1
3	4268	1916	1
3	4273	1920	1
3	4281	1924	1
3	4291	1928	1
3	4302	1932	1
3	4314	1936	1
3	4319	1940	1
3	4327	1944	1
3	4336	1948	1
3	4347	1952	1
3	4356	1956	1
3	4361	1960	1
3	4369	1964	1
3	4378	1968	1
3	4389	1972	1
3	4399	1976	1
3	4404	1980	1
3	4414	1984	1
3	4425	1988	1
3	4436	1992	1
3	4446	1996	1
3	4451	2000	1
3	4461	2004	1
3	4470	2008	1
3	4479	2012	1
3	4488	2016	1
3	4493	2020	1
3	4502	2024	1
3	4514	2028	1
3	4523	2032	1
3	4532	2036	1
3	4537	2040	1
3	4546	2044	1
3	4556	2048	1
3	4566	2052	1
3	4579	2056	1
3	4584	2060	1
3	4593	2064	1
3	4603	2068	1
3	4612	2072	1
3	4621	2076	1
3	4626	2080	1
3	4635	2084	1
3	4645	2088	1
3	4655	2092	1
3	4666	2096	1
3	4671	2100	1
3	4681	2104	1
3	4692	2108	1
3	4702	2112	1
3	4712	2116	1
3	4717	2120	1
3	4726	2124	1
3	4735	2128	1
3	4745	2132	1
3	4757	2136	1
3	4762	2140	1
3	4770	2144	1
3	4779	2148	1
3	4788	2152	1
3	4797	2156	1
3	4802	2160	1
3	4811	2164	1
3	4822	2168	1
3	4834	2172	1
3	4843	2176	1
3	4848	2180	1
3	4856	2184	1
3	4865	2188	1
3	4874	2192	1
3	4884	2196	1
3	4889	2200	1
3	4899	2204	1
3	4909	2208	1
3	4918	2212	1
3	4927	2216	1
3	4932	2220	1
3	4940	2224	1
3	4951	2228	1
3	4961	2232	1
3	4971	2236	1
3	4976	2240	1
3	4984	2244	1
3	4993	2248	1
3	5003	2252	1
3	5014	2256	1
3	5019	2260	1
3	5029	2264	1
3	5040	2268	1
3	5050	2272	1
3	5061	2276	1
3	5066	2280	1
3	5074	2284	1
3	5083	2288	1
3	5093	2292	1
3	5104	2296	1
3	5109	2300	1
3	5119	2304	1
3	5129	2308	1
3	5140	2312	1
3	5150	2316	1
3	5155	2320	1
3	5164	2324	1
3	5174	2328	1
3	5185	2332	1
3	5195	2336	1
3	5200	2340	1
3	5209	2344	1
3	5220	2348	1
3	5233	2352	1
3	5242	2356	1
3	5247	2360	1
3	5255	2364	1
3	5266	2368	1
3	5275	2372	1
3	5285	2376	1
3	5290	2380	1
3	5299	2384	1
3	5309	2388	1
3	5320	2392	1
3	5331	2396	1
3	5336	2400	1
3	5345	2404	1
3	5355	2408	1
3	5366	2412	1
3	5377	2416	1
3	5382	2420	1
3	5392	2424	1
3	5404	2428	1
3	5414	2432	1
3	5424	2436	1
3	5429	2440	1
3	5438	2444	1
3	5450	2448	1
3	5460	2452	1
3	5471	2456	1
3	5476	2460	1
3	5485	2464	1
3	5495	2468	1
3	5507	2472	1
3	5516	2476	1
3	5521	2480	1
3	5529	2484	1
3	5538	2488	1
3	5549	2492	1
3	5558	2496	1
3	5563	2500	1
3	5572	2504	1
3	5582	2508	1
3	5591	2512	1
3	5601	2516	1
3	5606	2520	1
3	5616	2524	1
3	5626	2528	1
3	5637	2532	1
3	5646	2536	1
3	5651	2540	1
3	5659	2544	1
3	5668	2548	1
3	5677	2552	1
3	5686	2556	1
3	5691	2560	1
3	5699	2564	1
3	5708	2568	1
3	5718	2572	1
3	5729	2576	1
3	5734	2580	1
3	5743	2584	1
3	5754	2588	1
3	5763	2592	1
3	5772	2596	1
3	5777	2600	1
3	5787	2604	1
3	5796	2608	1
3	5805	2612	1
3	5815	2616	1
3	5820	2620	1
3	5830	2624	1
3	5841	2628	1
3	5851	2632	1
3	5860	2636	1
3	5865	2640	1
3	5873	2644	1
3	5882	2648	1
3	5892	2652	1
3	5903	2656	1
3	5908	2660	1
3	5918	2664	1
3	5930	2668	1
3	5939	2672	1
3	5948	2676	1
3	5953	2680	1
3	5962	2684	1
3	5973	2688	1
3	5984	2692	1
3	5995	2696	1
3	6000	2700	1
3	6010	2704	1
3	6021	2708	1
3	6031	2712	1
3	6041	2716	1
3	6046	2720	1
3	6056	2724	1
3	6066	2728	1
3	6075	2732	1
3	6084	2736	1
3	6089	2740	1
3	6097	2744	1
3	6107	2748	1
3	6117	2752	1
3	6128	2756	1
3	6133	2760	1
3	6141	2764	1
3	6150	2768	1
3	6160	2772	1
3	6171	2776	1
3	6176	2780	1
3	6185	2784	1
3	6194	2788	1
3	6204	2792	1
3	6214	2796	1
3	6219	2800	1
3	6228	2804	1
3	6239	2808	1
3	6250	2812	1
3	6260	2816	1
3	6265	2820	1
3	6274	2824	1
3	6285	2828	1
3	6296	2832	1
3	6307	2836	1
3	6312	2840	1
3	6322	2844	1
3	6332	2848	1
3	6342	2852	1
3	6352	2856	1
3	6357	2860	1
3	6367	2864	1
3	6376	2868	1
3	6385	2872	1
3	6394	2876	1
3	6399	2880	1
3	6407	2884	1
3	6417	2888	1
3	6427	2892	1
3	6437	2896	1
3	6442	2900	1
3	6453	2904	1
3	6462	2908	1
3	6471	2912	1
3	6481	2916	1
3	6486	2920	1
3	6496	2924	1
3	6508	2928	1
3	6518	2932	1
3	6529	2936	1
3	6534	2940	1
3	6543	2944	1
3	6553	2948	1
3	6564	2952	1
3	6574	2956	1
3	6579	2960	1
3	6588	2964	1
3	6599	2968	1
3	6610	2972	1
3	6621	2976	1
3	6626	2980	1
3	6636	2984	1
3	6648	2988	1
3	6658	2992	1
3	6668	2996	1
3	6673	3000	1
3	6682	3004	1
3	6694	3008	1
3	6703	3012	1
3	6713	3016	1
3	6718	3020	1
3	6728	3024	1
3	6740	3028	1
3	6749	3032	1
3	6759	3036	1
3	6764	3040	1
3	6774	3044	1
3	6785	3048	1
3	6796	3052	1
3	6807	3056	1
3	6812	3060	1
3	6821	3064	1
3	6831	3068	1
3	6842	3072	1
3	6853	3076	1
3	6858	3080	1
3	6868	3084	1
3	6879	3088	1
3	6890	3092	1
3	6901	3096	1
3	6906	3100	1
3	6915	3104	1
3	6925	3108	1
3	6935	3112	1
3	6945	3116	1
3	6950	3120	1
3	6960	3124	1
3	6971	3128	1
3	6982	3132	1
3	6993	3136	1
3	6998	3140	1
3	7008	3144	1
3	7020	3148	1
3	7029	3152	1
3	7038	3156	1
3	7043	3160	1
3	7051	3164	1
3	7060	3168	1
3	7069	3172	1
3	7079	3176	1
3	7084	3180	1
3	7093	3184	1
3	7104	3188	1
3	7113	3192	1
3	7122	3196	1
3	7127	3200	1
3	7137	3204	1
3	7146	3208	1
3	7155	3212	1
3	7165	3216	1
3	7170	3220	1
3	7181	3224	1
3	7190	3228	1
3	7199	3232	1
3	7209	3236	1
3	7214	3240	1
3	7224	3244	1
3	7234	3248	1
3	7243	3252	1
3	7252	3256	1
3	7257	3260	1
3	7266	3264	1
3	7276	3268	1
3	7285	3272	1
3	7294	3276	1
3	7299	3280	1
3	7309	3284	1
3	7318	3288	1
3	7327	3292	1
3	7336	3296	1
3	7341	3300	1
3	7349	3304	1
3	7359	3308	1
3	7369	3312	1
3	7379	3316	1
3	7384	3320	1
3	7393	3324	1
3	7402	3328	1
3	7412	3332	1
3	7424	3336	1
3	7429	3340	1
3	7437	3344	1
3	7446	3348	1
3	7455	3352	1
3	7464	3356	1
3	7469	3360	1
3	7478	3364	1
3	7489	3368	1
3	7500	3372	1
3	7512	3376	1
3	7517	3380	1
3	7525	3384	1
3	7534	3388	1
3	7544	3392	1
3	7554	3396	1
3	7559	3400	1
3	7569	3404	1
3	7578	3408	1
3	7587	3412	1
3	7596	3416	1
3	7601	3420	1
3	7609	3424	1
3	7619	3428	1
3	7629	3432	1
3	7638	3436	1
3	7643	3440	1
3	7651	3444	1
3	7661	3448	1
3	7673	3452	1
3	7683	3456	1
3	7688	3460	1
3	7698	3464	1
3	7708	3468	1
3	7717	3472	1
3	7726	3476	1
3	7731	3480	1
3	7739	3484	1
3	7748	3488	1
3	7757	3492	1
3	7767	3496	1
3	7772	3500	1
3	7781	3504	1
3	7790	3508	1
3	7800	3512	1
3	7812	3516	1
3	7817	3520	1
3	7825	3524	1
3	7834	3528	1
3	7844	3532	1
3	7856	3536	1
3	7861	3540	1
3	7870	3544	1
3	7880	3548	1
3	7889	3552	1
3	7899	3556	1
3	7904	3560	1
3	7914	3564	1
3	7927	3568	1
3	7936	3572	1
3	7945	3576	1
3	7950	3580	1
3	7958	3584	1
3	7967	3588	1
3	7978	3592	1
3	7987	3596	1
3	7992	3600	1
4	5	5	0
4	17	10	0
4	26	15	0
4	35	20	0
4	48	25	0
4	57	30	0
4	67	35	1
4	78	40	1
4	94	45	0
4	104	50	1
4	114	55	0
4	124	60	1
4	140	65	0
4	149	70	0
4	158	75	0
4	167	80	0
4	181	85	1
4	193	90	0
4	203	95	1
4	215	100	0
4	228	105	0
4	237	110	0
4	248	115	0
4	257	120	0
4	270	125	0
4	279	130	0
4	288	135	0
4	297	140	0
4	311	145	1
4	321	150	0
4	331	155	1
4	344	160	0
4	357	165	0
4	366	170	0
4	376	175	1
4	388	180	0
4	402	185	1
4	413	190	1
4	424	195	1
4	435	200	1
4	451	205	0
4	461	210	1
4	471	215	0
4	480	220	0
4	494	225	1
4	505	230	1
4	516	235	1
4	529	240	0
4	542	245	0
4	552	250	1
4	562	255	0
4	571	260	0
4	585	265	1
4	597	270	0
4	606	275	0
4	615	280	0
4	629	285	1
4	640	290	1
4	651	295	1
4	663	300	0
4	678	305	0
4	687	310	0
4	696	315	0
4	705	320	0
4	718	325	0
4	728	330	1
4	739	335	1
4	750	340	1
4	766	345	0
4	775	350	0
4	785	355	1
4	795	360	0
4	809	365	1
4	819	370	0
4	829	375	1
4	842	380	0
4	856	385	1
4	866	390	0
4	876	395	1
4	888	400	0
4	901	405	0
4	911	410	1
4	921	415	0
4	930	420	0
4	943	425	0
4	952	430	0
4	963	435	0
4	972	440	0
4	985	445	0
4	995	450	1
4	1006	455	1
4	1017	460	1
4	1031	465	0
4	1042	470	0
4	1052	475	1
4	1063	480	1
4	1079	485	0
4	1088	490	0
4	1098	495	1
4	1109	500	1
4	1125	505	0
4	1135	510	1
4	1146	515	1
4	1157	520	1
4	1172	525	1
4	1183	530	1
4	1195	535	0
4	1206	540	0
4	1219	545	0
4	1229	550	1
4	1240	555	1
4	1252	560	0
4	1266	565	1
4	1277	570	1
4	1288	575	1
4	1299	580	1
4	1313	585	0
4	1324	590	0
4	1333	595	0
4	1344	600	0
4	1357	605	0
4	1366	610	0
4	1375	615	0
4	1385	620	1
4	1401	625	0
4	1411	630	1
4	1421	635	0
4	1431	640	1
4	1445	645	0
4	1456	650	0
4	1465	655	0
4	1474	660	0
4	1488	665	1
4	1500	670	0
4	1509	675	0
4	1518	680	0
4	1531	685	0
4	1540	690	0
4	1551	695	0
4	1560	700	0
4	1574	705	1
4	1586	710	0
4	1595	715	0
4	1604	720	0
4	1617	725	0
4	1626	730	0
4	1636	735	1
4	1647	740	1
4	1661	745	0
4	1671	750	1
4	1682	755	1
4	1692	760	0
4	1705	765	0
4	1716	770	0
4	1725	775	0
4	1734	780	0
4	1748	785	1
4	1759	790	1
4	1769	795	0
4	1779	800	1
4	1794	805	1
4	1807	810	0
4	1816	815	0
4	1825	820	0
4	1838	825	0
4	1847	830	0
4	1857	835	1
4	1868	840	1
4	1883	845	1
4	1895	850	0
4	1905	855	1
4	1916	860	1
4	1930	865	0
4	1940	870	1
4	1952	875	0
4	1961	880	0
4	1975	885	1
4	1986	890	1
4	1996	895	0
4	2006	900	1
4	2021	905	1
4	2032	910	1
4	2044	915	0
4	2053	920	0
4	2066	925	0
4	2077	930	0
4	2086	935	0
4	2096	940	1
4	2110	945	0
4	2120	950	1
4	2132	955	0
4	2141	960	0
4	2154	965	0
4	2164	970	1
4	2174	975	0
4	2183	980	0
4	2197	985	1
4	2207	990	0
4	2217	995	1
4	2229	1000	0
4	2242	1005	0
4	2251	1010	0
4	2261	1015	1
4	2271	1020	0
4	2284	1025	0
4	2294	1030	1
4	2305	1035	1
4	2315	1040	0
4	2328	1045	0
4	2337	1050	0
4	2347	1055	1
4	2358	1060	1
4	2373	1065	1
4	2385	1070	0
4	2394	1075	0
4	2403	1080	0
4	2417	1085	1
4	2430	1090	0
4	2439	1095	0
4	2448	1100	0
4	2461	1105	0
4	2470	1110	0
4	2480	1115	1
4	2490	1120	0
4	2504	1125	1
4	2515	1130	1
4	2526	1135	1
4	2536	1140	0
4	2549	1145	0
4	2558	1150	0
4	2567	1155	0
4	2577	1160	1
4	2591	1165	0
4	2602	1170	0
4	2611	1175	0
4	2621	1180	1
4	2635	1185	0
4	2645	1190	1
4	2656	1195	1
4	2666	1200	0
4	2679	1205	0
4	2689	1210	1
4	2701	1215	0
4	2710	1220	0
4	2723	1225	0
4	2733	1230	1
4	2743	1235	0
4	2752	1240	0
4	2766	1245	1
4	2777	1250	1
4	2788	1255	1
4	2798	1260	0
4	2811	1265	0
4	2820	1270	0
4	2830	1275	1
4	2840	1280	0
4	2854	1285	1
4	2866	1290	0
4	2875	1295	0
4	2884	1300	0
4	2898	1305	1
4	2910	1310	0
4	2919	1315	0
4	2929	1320	1
4	2944	1325	1
4	2954	1330	0
4	2963	1335	0
4	2974	1340	0
4	2987	1345	0
4	2996	1350	0
4	3007	1355	0
4	3016	1360	0
4	3030	1365	1
4	3041	1370	1
4	3052	1375	1
4	3062	1380	0
4	3075	1385	0
4	3085	1390	1
4	3097	1395	0
4	3107	1400	1
4	3123	1405	0
4	3132	1410	0
4	3141	1415	0
4	3151	1420	1
4	3165	1425	0
4	3175	1430	1
4	3186	1435	1
4	3198	1440	0
4	3212	1445	1
4	3222	1450	0
4	3233	1455	0
4	3242	1460	0
4	3255	1465	0
4	3265	1470	1
4	3275	1475	0
4	3288	1480	0
4	3301	1485	0
4	3310	1490	0
4	3319	1495	0
4	3329	1500	1
4	3343	1505	0
4	3353	1510	1
4	3365	1515	0
4	3374	1520	0
4	3387	1525	0
4	3396	1530	0
4	3406	1535	1
4	3417	1540	1
4	3433	1545	0
4	3442	1550	0
4	3451	1555	0
4	3461	1560	1
4	3476	1565	1
4	3487	1570	1
4	3498	1575	1
4	3511	1580	0
4	3524	1585	0
4	3533	1590	0
4	3542	1595	0
4	3551	1600	0
4	3565	1605	1
4	3575	1610	0
4	3585	1615	1
4	3596	1620	1
4	3612	1625	0
4	3621	1630	0
4	3631	1635	1
4	3642	1640	1
4	3656	1645	0
4	3665	1650	0
4	3674	1655	0
4	3683	1660	0
4	3697	1665	1
4	3709	1670	0
4	3718	1675	0
4	3728	1680	1
4	3743	1685	1
4	3755	1690	0
4	3764	1695	0
4	3774	1700	1
4	3789	1705	1
4	3800	1710	1
4	3811	1715	1
4	3821	1720	0
4	3835	1725	1
4	3845	1730	0
4	3855	1735	1
4	3867	1740	0
4	3880	1745	0
4	3890	1750	1
4	3901	1755	1
4	3912	1760	1
4	3926	1765	0
4	3936	1770	1
4	3946	1775	0
4	3956	1780	1
4	3972	1785	0
4	3981	1790	0
4	3990	1795	0
4	4000	1800	1
4	4015	1805	1
4	4025	1810	0
4	4034	1815	0
4	4045	1820	0
4	4058	1825	0
4	4067	1830	0
4	4077	1835	1
4	4089	1840	0
4	4103	1845	1
4	4114	1850	1
4	4126	1855	0
4	4136	1860	1
4	4150	1865	0
4	4160	1870	1
4	4171	1875	1
4	4182	1880	1
4	4197	1885	1
4	4208	1890	1
4	4218	1895	0
4	4229	1900	0
4	4242	1905	0
4	4251	1910	0
4	4260	1915	0
4	4269	1920	0
4	4282	1925	0
4	4292	1930	1
4	4303	1935	1
4	4315	1940	0
4	4328	1945	0
4	4337	1950	0
4	4348	1955	0
4	4357	1960	0
4	4370	1965	0
4	4379	1970	0
4	4390	1975	0
4	4400	1980	1
4	4415	1985	1
4	4426	1990	1
4	4437	1995	1
4	4447	2000	0
4	4462	2005	0
4	4471	2010	0
4	4480	2015	0
4	4489	2020	0
4	4503	2025	1
4	4515	2030	0
4	4524	2035	0
4	4533	2040	0
4	4547	2045	1
4	4557	2050	0
4	4567	2055	1
4	4580	2060	0
4	4594	2065	1
4	4604	2070	0
4	4613	2075	0
4	4622	2080	0
4	4636	2085	1
4	4646	2090	0
4	4656	2095	1
4	4667	2100	1
4	4682	2105	1
4	4693	2110	1
4	4703	2115	0
4	4713	2120	1
4	4727	2125	0
4	4736	2130	0
4	4746	2135	1
4	4758	2140	0
4	4771	2145	0
4	4780	2150	0
4	4789	2155	0
4	4798	2160	0
4	4812	2165	1
4	4823	2170	1
4	4835	2175	0
4	4844	2180	0
4	4857	2185	0
4	4866	2190	0
4	4875	2195	0
4	4885	2200	1
4	4900	2205	1
4	4910	2210	0
4	4919	2215	0
4	4928	2220	0
4	4941	2225	0
4	4952	2230	0
4	4962	2235	1
4	4972	2240	0
4	4985	2245	0
4	4994	2250	0
4	5004	2255	1
4	5015	2260	1
4	5030	2265	1
4	5041	2270	1
4	5051	2275	0
4	5062	2280	0
4	5075	2285	0
4	5084	2290	0
4	5094	2295	1
4	5105	2300	1
4	5120	2305	1
4	5130	2310	0
4	5141	2315	0
4	5151	2320	1
4	5165	2325	0
4	5175	2330	1
4	5186	2335	1
4	5196	2340	0
4	5210	2345	1
4	5221	2350	1
4	5234	2355	0
4	5243	2360	0
4	5256	2365	0
4	5267	2370	0
4	5276	2375	0
4	5286	2380	1
4	5300	2385	0
4	5310	2390	1
4	5321	2395	1
4	5332	2400	1
4	5346	2405	0
4	5356	2410	1
4	5367	2415	1
4	5378	2420	1
4	5393	2425	1
4	5405	2430	0
4	5415	2435	1
4	5425	2440	0
4	5439	2445	1
4	5451	2450	0
4	5461	2455	1
4	5472	2460	1
4	5486	2465	0
4	5496	2470	1
4	5508	2475	0
4	5517	2480	0
4	5530	2485	0
4	5539	2490	0
4	5550	2495	0
4	5559	2500	0
4	5573	2505	1
4	5583	2510	0
4	5592	2515	0
4	5602	2520	1
4	5617	2525	1
4	5627	2530	0
4	5638	2535	0
4	5647	2540	0
4	5660	2545	0
4	5669	2550	0
4	5678	2555	0
4	5687	2560	0
4	5700	2565	0
4	5709	2570	0
4	5719	2575	1
4	5730	2580	1
4	5744	2585	0
4	5755	2590	0
4	5764	2595	0
4	5773	2600	0
4	5788	2605	0
4	5797	2610	0
4	5806	2615	0
4	5816	2620	1
4	5831	2625	1
4	5842	2630	1
4	5852	2635	0
4	5861	2640	0
4	5874	2645	0
4	5883	2650	0
4	5893	2655	1
4	5904	2660	1
4	5919	2665	1
4	5931	2670	0
4	5940	2675	0
4	5949	2680	0
4	5963	2685	1
4	5974	2690	1
4	5985	2695	1
4	5996	2700	1
4	6011	2705	1
4	6022	2710	1
4	6032	2715	0
4	6042	2720	1
4	6057	2725	1
4	6067	2730	0
4	6076	2735	0
4	6085	2740	0
4	6098	2745	0
4	6108	2750	1
4	6118	2755	0
4	6129	2760	0
4	6142	2765	0
4	6151	2770	0
4	6161	2775	1
4	6172	2780	1
4	6186	2785	0
4	6195	2790	0
4	6205	2795	1
4	6215	2800	0
4	6229	2805	1
4	6240	2810	1
4	6251	2815	1
4	6261	2820	0
4	6275	2825	1
4	6286	2830	1
4	6297	2835	1
4	6308	2840	1
4	6323	2845	1
4	6333	2850	0
4	6343	2855	1
4	6353	2860	0
4	6368	2865	0
4	6377	2870	0
4	6386	2875	0
4	6395	2880	0
4	6408	2885	0
4	6418	2890	1
4	6428	2895	0
4	6438	2900	1
4	6454	2905	0
4	6463	2910	0
4	6472	2915	0
4	6482	2920	1
4	6497	2925	1
4	6509	2930	0
4	6519	2935	1
4	6530	2940	1
4	6544	2945	0
4	6554	2950	1
4	6565	2955	1
4	6575	2960	0
4	6589	2965	1
4	6600	2970	1
4	6611	2975	1
4	6622	2980	1
4	6637	2985	1
4	6649	2990	0
4	6659	2995	1
4	6669	3000	0
4	6683	3005	1
4	6695	3010	0
4	6704	3015	0
4	6714	3020	1
4	6729	3025	1
4	6741	3030	0
4	6750	3035	0
4	6760	3040	1
4	6775	3045	1
4	6786	3050	1
4	6797	3055	1
4	6808	3060	1
4	6822	3065	0
4	6832	3070	1
4	6843	3075	1
4	6854	3080	1
4	6869	3085	1
4	6880	3090	1
4	6891	3095	1
4	6902	3100	1
4	6916	3105	0
4	6926	3110	1
4	6936	3115	0
4	6946	3120	1
4	6961	3125	1
4	6972	3130	1
4	6983	3135	1
4	6994	3140	1
4	7009	3145	1
4	7021	3150	0
4	7030	3155	0
4	7039	3160	0
4	7052	3165	0
4	7061	3170	0
4	7070	3175	0
4	7080	3180	1
4	7094	3185	0
4	7105	3190	0
4	7114	3195	0
4	7123	3200	0
4	7138	3205	0
4	7147	3210	0
4	7156	3215	0
4	7166	3220	1
4	7182	3225	0
4	7191	3230	0
4	7200	3235	0
4	7210	3240	1
4	7225	3245	1
4	7235	3250	0
4	7244	3255	0
4	7253	3260	0
4	7267	3265	1
4	7277	3270	0
4	7286	3275	0
4	7295	3280	0
4	7310	3285	0
4	7319	3290	0
4	7328	3295	0
4	7337	3300	0
4	7350	3305	0
4	7360	3310	1
4	7370	3315	0
4	7380	3320	1
4	7394	3325	0
4	7403	3330	0
4	7413	3335	1
4	7425	3340	0
4	7438	3345	0
4	7447	3350	0
4	7456	3355	0
4	7465	3360	0
4	7479	3365	1
4	7490	3370	1
4	7501	3375	1
4	7513	3380	0
4	7526	3385	0
4	7535	3390	0
4	7545	3395	1
4	7555	3400	0
4	7570	3405	0
4	7579	3410	0
4	7588	3415	0
4	7597	3420	0
4	7610	3425	0
4	7620	3430	1
4	7630	3435	0
4	7639	3440	0
4	7652	3445	0
4	7662	3450	1
4	7674	3455	0
4	7684	3460	1
4	7699	3465	1
4	7709	3470	0
4	7718	3475	0
4	7727	3480	0
4	7740	3485	0
4	7749	3490	0
4	7758	3495	0
4	7768	3500	1
4	7782	3505	0
4	7791	3510	0
4	7801	3515	1
4	7813	3520	0
4	7826	3525	0
4	7835	3530	0
4	7845	3535	1
4	7857	3540	0
4	7871	3545	1
4	7881	3550	0
4	7890	3555	0
4	7900	3560	1
4	7915	3565	1
4	7928	3570	0
4	7937	3575	0
4	7946	3580	0
4	7959	3585	0
4	7968	3590	0
4	7979	3595	0
4	7988	3600	0
5	44	24	1
5	53	28	1
5	63	32	1
5	74	36	1
5	79	40	1
5	90	44	1
5	100	48	1
5	110	52	1
5	120	56	1
5	125	60	1
5	136	64	1
5	145	68	1
5	154	72	1
5	163	76	1
5	168	80	1
5	177	84	1
5	189	88	1
5	199	92	1
5	211	96	1
5	216	100	1
5	224	104	1
5	233	108	1
5	244	112	1
5	253	116	1
5	258	120	1
5	266	124	1
5	275	128	1
5	284	132	1
5	293	136	1
5	298	140	1
5	307	144	1
5	317	148	1
5	327	152	1
5	345	160	1
5	353	164	1
5	362	168	1
5	372	172	1
5	384	176	1
5	389	180	1
5	398	184	1
5	409	188	1
5	431	196	1
5	436	200	1
5	457	208	1
5	467	212	1
5	476	216	1
5	481	220	1
5	490	224	1
5	525	236	1
5	530	240	1
5	538	244	1
5	548	248	1
5	567	256	1
5	572	260	1
5	581	264	1
5	602	272	1
5	611	276	1
5	616	280	1
5	625	284	1
5	636	288	1
5	647	292	1
5	664	300	1
5	674	304	1
5	683	308	1
5	692	312	1
5	701	316	1
5	706	320	1
5	714	324	1
5	724	328	1
5	735	332	1
5	751	340	1
5	762	344	1
5	771	348	1
5	781	352	1
5	791	356	1
5	796	360	1
5	805	364	1
5	815	368	1
5	825	372	1
5	843	380	1
5	852	384	1
5	872	392	1
5	889	400	1
5	897	404	1
5	907	408	1
5	917	412	1
5	926	416	1
5	931	420	1
5	939	424	1
5	948	428	1
5	959	432	1
5	968	436	1
5	973	440	1
5	981	444	1
5	991	448	1
5	1002	452	1
5	1013	456	1
5	1018	460	1
5	1038	468	1
5	1048	472	1
5	1059	476	1
5	1064	480	1
5	1075	484	1
5	1084	488	1
5	1094	492	1
5	1105	496	1
5	1110	500	1
5	1131	508	1
5	1142	512	1
5	1153	516	1
5	1158	520	1
5	1179	528	1
5	1191	532	1
5	1202	536	1
5	1207	540	1
5	1215	544	1
5	1225	548	1
5	1236	552	1
5	1248	556	1
5	1253	560	1
5	1262	564	1
5	1273	568	1
5	1284	572	1
5	1295	576	1
5	1300	580	1
5	1309	584	1
5	1320	588	1
5	1329	592	1
5	1340	596	1
5	1345	600	1
5	1353	604	1
5	1362	608	1
5	1371	612	1
5	1381	616	1
5	1386	620	1
5	1397	624	1
5	1407	628	1
5	1417	632	1
5	1427	636	1
5	1432	640	1
5	1441	644	1
5	1452	648	1
5	1461	652	1
5	1470	656	1
5	1475	660	1
5	1484	664	1
5	1496	668	1
5	1505	672	1
5	1514	676	1
5	1519	680	1
5	1527	684	1
5	1536	688	1
5	1547	692	1
5	1556	696	1
5	1561	700	1
5	1570	704	1
5	1582	708	1
5	1591	712	1
5	1600	716	1
5	1605	720	1
5	1613	724	1
5	1622	728	1
5	1632	732	1
5	1643	736	1
5	1648	740	1
5	1657	744	1
5	1667	748	1
5	1678	752	1
5	1688	756	1
5	1693	760	1
5	1701	764	1
5	1712	768	1
5	1721	772	1
5	1730	776	1
5	1735	780	1
5	1744	784	1
5	1755	788	1
5	1765	792	1
5	1775	796	1
5	1780	800	1
5	1790	804	1
5	1803	808	1
5	1812	812	1
5	1821	816	1
5	1826	820	1
5	1834	824	1
5	1843	828	1
5	1853	832	1
5	1864	836	1
5	1869	840	1
5	1879	844	1
5	1891	848	1
5	1901	852	1
5	1912	856	1
5	1917	860	1
5	1926	864	1
5	1936	868	1
5	1948	872	1
5	1957	876	1
5	1962	880	1
5	1971	884	1
5	1982	888	1
5	1992	892	1
5	2002	896	1
5	2007	900	1
5	2017	904	1
5	2028	908	1
5	2040	912	1
5	2049	916	1
5	2054	920	1
5	2062	924	1
5	2073	928	1
5	2082	932	1
5	2092	936	1
5	2097	940	1
5	2106	944	1
5	2116	948	1
5	2128	952	1
5	2137	956	1
5	2142	960	1
5	2150	964	1
5	2160	968	1
5	2170	972	1
5	2179	976	1
5	2184	980	1
5	2193	984	1
5	2203	988	1
5	2213	992	1
5	2225	996	1
5	2230	1000	1
5	2238	1004	1
5	2247	1008	1
5	2257	1012	1
5	2267	1016	1
5	2272	1020	1
5	2280	1024	1
5	2290	1028	1
5	2301	1032	1
5	2311	1036	1
5	2316	1040	1
5	2324	1044	1
5	2333	1048	1
5	2343	1052	1
5	2354	1056	1
5	2359	1060	1
5	2369	1064	1
5	2381	1068	1
5	2390	1072	1
5	2399	1076	1
5	2404	1080	1
5	2413	1084	1
5	2426	1088	1
5	2435	1092	1
5	2444	1096	1
5	2449	1100	1
5	2457	1104	1
5	2466	1108	1
5	2476	1112	1
5	2486	1116	1
5	2491	1120	1
5	2500	1124	1
5	2511	1128	1
5	2522	1132	1
5	2532	1136	1
5	2537	1140	1
5	2545	1144	1
5	2554	1148	1
5	2563	1152	1
5	2573	1156	1
5	2578	1160	1
5	2587	1164	1
5	2598	1168	1
5	2607	1172	1
5	2617	1176	1
5	2622	1180	1
5	2631	1184	1
5	2641	1188	1
5	2652	1192	1
5	2662	1196	1
5	2667	1200	1
5	2675	1204	1
5	2685	1208	1
5	2697	1212	1
5	2706	1216	1
5	2711	1220	1
5	2719	1224	1
5	2729	1228	1
5	2739	1232	1
5	2748	1236	1
5	2753	1240	1
5	2762	1244	1
5	2773	1248	1
5	2784	1252	1
5	2794	1256	1
5	2799	1260	1
5	2807	1264	1
5	2816	1268	1
5	2826	1272	1
5	2841	1280	1
5	2850	1284	1
5	2871	1292	1
5	2880	1296	1
5	2885	1300	1
5	2894	1304	1
5	2906	1308	1
5	2915	1312	1
5	2925	1316	1
5	2930	1320	1
5	2959	1332	1
5	2970	1336	1
5	2975	1340	1
5	2983	1344	1
5	2992	1348	1
5	3003	1352	1
5	3012	1356	1
5	3017	1360	1
5	3026	1364	1
5	3037	1368	1
5	3048	1372	1
5	3058	1376	1
5	3063	1380	1
5	3071	1384	1
5	3081	1388	1
5	3103	1396	1
5	3108	1400	1
5	3119	1404	1
5	3128	1408	1
5	3137	1412	1
5	3147	1416	1
5	3152	1420	1
5	3161	1424	1
5	3171	1428	1
5	3199	1440	1
5	3208	1444	1
5	3218	1448	1
5	3229	1452	1
5	3238	1456	1
5	3243	1460	1
5	3251	1464	1
5	3261	1468	1
5	3284	1476	1
5	3289	1480	1
5	3297	1484	1
5	3306	1488	1
5	3315	1492	1
5	3325	1496	1
5	3330	1500	1
5	3339	1504	1
5	3349	1508	1
5	3370	1516	1
5	3375	1520	1
5	3383	1524	1
5	3392	1528	1
5	3402	1532	1
5	3413	1536	1
5	3418	1540	1
5	3438	1548	1
5	3447	1552	1
5	3457	1556	1
5	3462	1560	1
5	3507	1576	1
5	3512	1580	1
5	3520	1584	1
5	3529	1588	1
5	3538	1592	1
5	3547	1596	1
5	3552	1600	1
5	3561	1604	1
5	3581	1612	1
5	3592	1616	1
5	3597	1620	1
5	3608	1624	1
5	3617	1628	1
5	3627	1632	1
5	3638	1636	1
5	3643	1640	1
5	3652	1644	1
5	3661	1648	1
5	3670	1652	1
5	3679	1656	1
5	3684	1660	1
5	3693	1664	1
5	3705	1668	1
5	3714	1672	1
5	3724	1676	1
5	3729	1680	1
5	3739	1684	1
5	3751	1688	1
5	3760	1692	1
5	3770	1696	1
5	3775	1700	1
5	3785	1704	1
5	3796	1708	1
5	3807	1712	1
5	3817	1716	1
5	3822	1720	1
5	3831	1724	1
5	3841	1728	1
5	3851	1732	1
5	3868	1740	1
5	3876	1744	1
5	3886	1748	1
5	3897	1752	1
5	3908	1756	1
5	3913	1760	1
5	3932	1768	1
5	3952	1776	1
5	3957	1780	1
5	3968	1784	1
5	3977	1788	1
5	3986	1792	1
5	3996	1796	1
5	4001	1800	1
5	4011	1804	1
5	4030	1812	1
5	4041	1816	1
5	4046	1820	1
5	4054	1824	1
5	4063	1828	1
5	4073	1832	1
5	4085	1836	1
5	4090	1840	1
5	4099	1844	1
5	4132	1856	1
5	4137	1860	1
5	4146	1864	1
5	4156	1868	1
5	4167	1872	1
5	4178	1876	1
5	4183	1880	1
5	4204	1888	1
5	4214	1892	1
5	4225	1896	1
5	4230	1900	1
5	4238	1904	1
5	4247	1908	1
5	4256	1912	1
5	4265	1916	1
5	4270	1920	1
5	4278	1924	1
5	4288	1928	1
5	4299	1932	1
5	4316	1940	1
5	4324	1944	1
5	4333	1948	1
5	4344	1952	1
5	4353	1956	1
5	4358	1960	1
5	4366	1964	1
5	4375	1968	1
5	4386	1972	1
5	4396	1976	1
5	4401	1980	1
5	4448	2000	1
5	4458	2004	1
5	4467	2008	1
5	4476	2012	1
5	4485	2016	1
5	4490	2020	1
5	4499	2024	1
5	4511	2028	1
5	4520	2032	1
5	4529	2036	1
5	4534	2040	1
5	4543	2044	1
5	4553	2048	1
5	4563	2052	1
5	4576	2056	1
5	4581	2060	1
5	4590	2064	1
5	4600	2068	1
5	4609	2072	1
5	4618	2076	1
5	4623	2080	1
5	4632	2084	1
5	4642	2088	1
5	4652	2092	1
5	4663	2096	1
5	4668	2100	1
5	4678	2104	1
5	4689	2108	1
5	4699	2112	1
5	4709	2116	1
5	4714	2120	1
5	4723	2124	1
5	4732	2128	1
5	4742	2132	1
5	4754	2136	1
5	4759	2140	1
5	4767	2144	1
5	4776	2148	1
5	4785	2152	1
5	4794	2156	1
5	4799	2160	1
5	4808	2164	1
5	4819	2168	1
5	4831	2172	1
5	4840	2176	1
5	4845	2180	1
5	4853	2184	1
5	4862	2188	1
5	4871	2192	1
5	4881	2196	1
5	4886	2200	1
5	4896	2204	1
5	4906	2208	1
5	4915	2212	1
5	4924	2216	1
5	4929	2220	1
5	4937	2224	1
5	4948	2228	1
5	4958	2232	1
5	4973	2240	1
5	4981	2244	1
5	4990	2248	1
5	5000	2252	1
5	5011	2256	1
5	5016	2260	1
5	5026	2264	1
5	5037	2268	1
5	5047	2272	1
5	5058	2276	1
5	5063	2280	1
5	5071	2284	1
5	5080	2288	1
5	5090	2292	1
5	5101	2296	1
5	5106	2300	1
5	5116	2304	1
5	5137	2312	1
5	5147	2316	1
5	5152	2320	1
5	5171	2328	1
5	5192	2336	1
5	5197	2340	1
5	5206	2344	1
5	5217	2348	1
5	5239	2356	1
5	5244	2360	1
5	5252	2364	1
5	5263	2368	1
5	5272	2372	1
5	5282	2376	1
5	5287	2380	1
5	5306	2388	1
5	5333	2400	1
5	5352	2408	1
5	5374	2416	1
5	5379	2420	1
5	5401	2428	1
5	5411	2432	1
5	5426	2440	1
5	5435	2444	1
5	5457	2452	1
5	5468	2456	1
5	5473	2460	1
5	5482	2464	1
5	5492	2468	1
5	5513	2476	1
5	5518	2480	1
5	5526	2484	1
5	5535	2488	1
5	5546	2492	1
5	5555	2496	1
5	5560	2500	1
5	5569	2504	1
5	5579	2508	1
5	5588	2512	1
5	5598	2516	1
5	5603	2520	1
5	5613	2524	1
5	5623	2528	1
5	5634	2532	1
5	5643	2536	1
5	5648	2540	1
5	5656	2544	1
5	5665	2548	1
5	5674	2552	1
5	5683	2556	1
5	5688	2560	1
5	5696	2564	1
5	5705	2568	1
5	5715	2572	1
5	5726	2576	1
5	5731	2580	1
5	5740	2584	1
5	5751	2588	1
5	5760	2592	1
5	5769	2596	1
5	5774	2600	1
5	5784	2604	1
5	5793	2608	1
5	5802	2612	1
5	5812	2616	1
5	5817	2620	1
5	5827	2624	1
5	5838	2628	1
5	5848	2632	1
5	5857	2636	1
5	5862	2640	1
5	5870	2644	1
5	5879	2648	1
5	5889	2652	1
5	5900	2656	1
5	5905	2660	1
5	5915	2664	1
5	5927	2668	1
5	5936	2672	1
5	5945	2676	1
5	5950	2680	1
5	5959	2684	1
5	5970	2688	1
5	5981	2692	1
5	5992	2696	1
5	5997	2700	1
5	6007	2704	1
5	6018	2708	1
5	6028	2712	1
5	6038	2716	1
5	6043	2720	1
5	6053	2724	1
5	6063	2728	1
5	6072	2732	1
5	6081	2736	1
5	6086	2740	1
5	6094	2744	1
5	6104	2748	1
5	6114	2752	1
5	6125	2756	1
5	6130	2760	1
5	6138	2764	1
5	6147	2768	1
5	6157	2772	1
5	6168	2776	1
5	6173	2780	1
5	6182	2784	1
5	6191	2788	1
5	6201	2792	1
5	6211	2796	1
5	6216	2800	1
5	6225	2804	1
5	6236	2808	1
5	6247	2812	1
5	6257	2816	1
5	6262	2820	1
5	6271	2824	1
5	6282	2828	1
5	6293	2832	1
5	6304	2836	1
5	6309	2840	1
5	6319	2844	1
5	6329	2848	1
5	6339	2852	1
5	6349	2856	1
5	6354	2860	1
5	6364	2864	1
5	6373	2868	1
5	6382	2872	1
5	6391	2876	1
5	6396	2880	1
5	6404	2884	1
5	6414	2888	1
5	6424	2892	1
5	6434	2896	1
5	6439	2900	1
5	6450	2904	1
5	6459	2908	1
5	6468	2912	1
5	6478	2916	1
5	6483	2920	1
5	6493	2924	1
5	6505	2928	1
5	6515	2932	1
5	6526	2936	1
5	6531	2940	1
5	6540	2944	1
5	6550	2948	1
5	6571	2956	1
5	6576	2960	1
5	6585	2964	1
5	6607	2972	1
5	6623	2980	1
5	6633	2984	1
5	6645	2988	1
5	6655	2992	1
5	6665	2996	1
5	6670	3000	1
5	6679	3004	1
5	6691	3008	1
5	6700	3012	1
5	6710	3016	1
5	6715	3020	1
5	6737	3028	1
5	6746	3032	1
5	6756	3036	1
5	6761	3040	1
5	6771	3044	1
5	6782	3048	1
5	6793	3052	1
5	6809	3060	1
5	6818	3064	1
5	6828	3068	1
5	6850	3076	1
5	6855	3080	1
5	6865	3084	1
5	6876	3088	1
5	6887	3092	1
5	6903	3100	1
5	6912	3104	1
5	6922	3108	1
5	6932	3112	1
5	6942	3116	1
5	6947	3120	1
5	6957	3124	1
5	6968	3128	1
5	6979	3132	1
5	6990	3136	1
5	6995	3140	1
5	7005	3144	1
5	7017	3148	1
5	7026	3152	1
5	7035	3156	1
5	7040	3160	1
5	7048	3164	1
5	7057	3168	1
5	7066	3172	1
5	7076	3176	1
5	7081	3180	1
5	7101	3188	1
5	7110	3192	1
5	7119	3196	1
5	7124	3200	1
5	7134	3204	1
5	7143	3208	1
5	7152	3212	1
5	7162	3216	1
5	7167	3220	1
5	7187	3228	1
5	7196	3232	1
5	7206	3236	1
5	7211	3240	1
5	7240	3252	1
5	7249	3256	1
5	7254	3260	1
5	7263	3264	1
5	7282	3272	1
5	7291	3276	1
5	7296	3280	1
5	7306	3284	1
5	7315	3288	1
5	7324	3292	1
5	7333	3296	1
5	7338	3300	1
5	7346	3304	1
5	7356	3308	1
5	7366	3312	1
5	7376	3316	1
5	7381	3320	1
5	7399	3328	1
5	7409	3332	1
5	7426	3340	1
5	7434	3344	1
5	7443	3348	1
5	7452	3352	1
5	7461	3356	1
5	7466	3360	1
5	7475	3364	1
5	7486	3368	1
5	7497	3372	1
5	7514	3380	1
5	7522	3384	1
5	7531	3388	1
5	7541	3392	1
5	7556	3400	1
5	7566	3404	1
5	7575	3408	1
5	7584	3412	1
5	7593	3416	1
5	7598	3420	1
5	7606	3424	1
5	7616	3428	1
5	7635	3436	1
5	7640	3440	1
5	7648	3444	1
5	7658	3448	1
5	7670	3452	1
5	7680	3456	1
5	7685	3460	1
5	7695	3464	1
5	7705	3468	1
5	7714	3472	1
5	7723	3476	1
5	7728	3480	1
5	7736	3484	1
5	7745	3488	1
5	7754	3492	1
5	7764	3496	1
5	7769	3500	1
5	7787	3508	1
5	7797	3512	1
5	7809	3516	1
5	7814	3520	1
5	7822	3524	1
5	7831	3528	1
5	7841	3532	1
5	7853	3536	1
5	7858	3540	1
5	7867	3544	1
5	7877	3548	1
5	7886	3552	1
5	7896	3556	1
5	7901	3560	1
5	7933	3572	1
5	7942	3576	1
5	7947	3580	1
5	7955	3584	1
5	7964	3588	1
5	7975	3592	1
5	7984	3596	1
5	7989	3600	1
6	45	24	1
6	54	28	1
6	64	32	1
6	75	36	1
6	80	40	1
6	101	48	1
6	111	52	1
6	121	56	1
6	126	60	1
6	146	68	1
6	155	72	1
6	164	76	1
6	169	80	1
6	178	84	1
6	190	88	1
6	200	92	1
6	212	96	1
6	217	100	1
6	225	104	1
6	234	108	1
6	245	112	1
6	254	116	1
6	259	120	1
6	267	124	1
6	276	128	1
6	285	132	1
6	294	136	1
6	299	140	1
6	308	144	1
6	328	152	1
6	341	156	1
6	346	160	1
6	354	164	1
6	363	168	1
6	373	172	1
6	385	176	1
6	390	180	1
6	399	184	1
6	410	188	1
6	421	192	1
6	432	196	1
6	437	200	1
6	448	204	1
6	458	208	1
6	468	212	1
6	477	216	1
6	482	220	1
6	491	224	1
6	502	228	1
6	513	232	1
6	526	236	1
6	531	240	1
6	539	244	1
6	549	248	1
6	559	252	1
6	568	256	1
6	573	260	1
6	582	264	1
6	594	268	1
6	603	272	1
6	612	276	1
6	617	280	1
6	626	284	1
6	637	288	1
6	660	296	1
6	665	300	1
6	675	304	1
6	684	308	1
6	693	312	1
6	702	316	1
6	707	320	1
6	715	324	1
6	725	328	1
6	736	332	1
6	747	336	1
6	752	340	1
6	772	348	1
6	782	352	1
6	797	360	1
6	806	364	1
6	826	372	1
6	839	376	1
6	844	380	1
6	853	384	1
6	863	388	1
6	873	392	1
6	885	396	1
6	890	400	1
6	898	404	1
6	908	408	1
6	927	416	1
6	932	420	1
6	940	424	1
6	949	428	1
6	960	432	1
6	969	436	1
6	974	440	1
6	982	444	1
6	992	448	1
6	1014	456	1
6	1019	460	1
6	1028	464	1
6	1039	468	1
6	1049	472	1
6	1065	480	1
6	1085	488	1
6	1095	492	1
6	1106	496	1
6	1111	500	1
6	1122	504	1
6	1132	508	1
6	1159	520	1
6	1169	524	1
6	1192	532	1
6	1203	536	1
6	1208	540	1
6	1216	544	1
6	1226	548	1
6	1237	552	1
6	1249	556	1
6	1254	560	1
6	1263	564	1
6	1274	568	1
6	1296	576	1
6	1301	580	1
6	1310	584	1
6	1321	588	1
6	1330	592	1
6	1341	596	1
6	1346	600	1
6	1354	604	1
6	1363	608	1
6	1372	612	1
6	1382	616	1
6	1387	620	1
6	1398	624	1
6	1408	628	1
6	1418	632	1
6	1428	636	1
6	1433	640	1
6	1442	644	1
6	1453	648	1
6	1462	652	1
6	1471	656	1
6	1476	660	1
6	1485	664	1
6	1506	672	1
6	1515	676	1
6	1520	680	1
6	1528	684	1
6	1537	688	1
6	1548	692	1
6	1557	696	1
6	1562	700	1
6	1571	704	1
6	1583	708	1
6	1592	712	1
6	1601	716	1
6	1606	720	1
6	1614	724	1
6	1623	728	1
6	1633	732	1
6	1644	736	1
6	1649	740	1
6	1668	748	1
6	1689	756	1
6	1694	760	1
6	1702	764	1
6	1713	768	1
6	1722	772	1
6	1731	776	1
6	1736	780	1
6	1745	784	1
6	1756	788	1
6	1766	792	1
6	1776	796	1
6	1781	800	1
6	1791	804	1
6	1804	808	1
6	1813	812	1
6	1822	816	1
6	1827	820	1
6	1835	824	1
6	1844	828	1
6	1854	832	1
6	1865	836	1
6	1870	840	1
6	1880	844	1
6	1902	852	1
6	1913	856	1
6	1918	860	1
6	1927	864	1
6	1937	868	1
6	1949	872	1
6	1958	876	1
6	1963	880	1
6	1972	884	1
6	2003	896	1
6	2008	900	1
6	2018	904	1
6	2029	908	1
6	2050	916	1
6	2055	920	1
6	2063	924	1
6	2074	928	1
6	2083	932	1
6	2093	936	1
6	2098	940	1
6	2107	944	1
6	2117	948	1
6	2129	952	1
6	2138	956	1
6	2143	960	1
6	2151	964	1
6	2161	968	1
6	2180	976	1
6	2185	980	1
6	2194	984	1
6	2204	988	1
6	2214	992	1
6	2231	1000	1
6	2239	1004	1
6	2248	1008	1
6	2258	1012	1
6	2268	1016	1
6	2273	1020	1
6	2281	1024	1
6	2291	1028	1
6	2302	1032	1
6	2312	1036	1
6	2317	1040	1
6	2325	1044	1
6	2334	1048	1
6	2344	1052	1
6	2360	1060	1
6	2370	1064	1
6	2391	1072	1
6	2400	1076	1
6	2405	1080	1
6	2414	1084	1
6	2436	1092	1
6	2445	1096	1
6	2450	1100	1
6	2458	1104	1
6	2467	1108	1
6	2477	1112	1
6	2492	1120	1
6	2501	1124	1
6	2538	1140	1
6	2546	1144	1
6	2555	1148	1
6	2564	1152	1
6	2574	1156	1
6	2579	1160	1
6	2599	1168	1
6	2608	1172	1
6	2618	1176	1
6	2623	1180	1
6	2642	1188	1
6	2668	1200	1
6	2676	1204	1
6	2686	1208	1
6	2698	1212	1
6	2707	1216	1
6	2712	1220	1
6	2720	1224	1
6	2730	1228	1
6	2749	1236	1
6	2754	1240	1
6	2763	1244	1
6	2785	1252	1
6	2795	1256	1
6	2800	1260	1
6	2808	1264	1
6	2817	1268	1
6	2827	1272	1
6	2837	1276	1
6	2842	1280	1
6	2851	1284	1
6	2863	1288	1
6	2872	1292	1
6	2881	1296	1
6	2886	1300	1
6	2895	1304	1
6	2907	1308	1
6	2916	1312	1
6	2926	1316	1
6	2931	1320	1
6	2941	1324	1
6	2951	1328	1
6	2960	1332	1
6	2971	1336	1
6	2976	1340	1
6	2984	1344	1
6	2993	1348	1
6	3004	1352	1
6	3013	1356	1
6	3018	1360	1
6	3027	1364	1
6	3064	1380	1
6	3072	1384	1
6	3082	1388	1
6	3094	1392	1
6	3104	1396	1
6	3109	1400	1
6	3120	1404	1
6	3129	1408	1
6	3138	1412	1
6	3148	1416	1
6	3153	1420	1
6	3172	1428	1
6	3183	1432	1
6	3195	1436	1
6	3200	1440	1
6	3209	1444	1
6	3230	1452	1
6	3239	1456	1
6	3244	1460	1
6	3252	1464	1
6	3262	1468	1
6	3272	1472	1
6	3285	1476	1
6	3290	1480	1
6	3298	1484	1
6	3307	1488	1
6	3316	1492	1
6	3326	1496	1
6	3331	1500	1
6	3350	1508	1
6	3362	1512	1
6	3371	1516	1
6	3376	1520	1
6	3384	1524	1
6	3393	1528	1
6	3403	1532	1
6	3419	1540	1
6	3430	1544	1
6	3439	1548	1
6	3448	1552	1
6	3458	1556	1
6	3463	1560	1
6	3473	1564	1
6	3484	1568	1
6	3495	1572	1
6	3513	1580	1
6	3521	1584	1
6	3530	1588	1
6	3539	1592	1
6	3548	1596	1
6	3553	1600	1
6	3562	1604	1
6	3572	1608	1
6	3582	1612	1
6	3598	1620	1
6	3618	1628	1
6	3628	1632	1
6	3639	1636	1
6	3644	1640	1
6	3653	1644	1
6	3662	1648	1
6	3671	1652	1
6	3680	1656	1
6	3685	1660	1
6	3694	1664	1
6	3706	1668	1
6	3715	1672	1
6	3725	1676	1
6	3730	1680	1
6	3761	1692	1
6	3771	1696	1
6	3776	1700	1
6	3786	1704	1
6	3797	1708	1
6	3818	1716	1
6	3823	1720	1
6	3832	1724	1
6	3852	1732	1
6	3864	1736	1
6	3869	1740	1
6	3877	1744	1
6	3887	1748	1
6	3898	1752	1
6	3909	1756	1
6	3914	1760	1
6	3923	1764	1
6	3933	1768	1
6	3943	1772	1
6	3953	1776	1
6	3958	1780	1
6	3969	1784	1
6	3978	1788	1
6	3987	1792	1
6	3997	1796	1
6	4002	1800	1
6	4012	1804	1
6	4022	1808	1
6	4031	1812	1
6	4042	1816	1
6	4047	1820	1
6	4055	1824	1
6	4064	1828	1
6	4074	1832	1
6	4091	1840	1
6	4100	1844	1
6	4111	1848	1
6	4123	1852	1
6	4133	1856	1
6	4138	1860	1
6	4157	1868	1
6	4184	1880	1
6	4194	1884	1
6	4205	1888	1
6	4226	1896	1
6	4231	1900	1
6	4239	1904	1
6	4248	1908	1
6	4257	1912	1
6	4266	1916	1
6	4271	1920	1
6	4279	1924	1
6	4289	1928	1
6	4300	1932	1
6	4312	1936	1
6	4317	1940	1
6	4325	1944	1
6	4334	1948	1
6	4345	1952	1
6	4354	1956	1
6	4359	1960	1
6	4367	1964	1
6	4376	1968	1
6	4387	1972	1
6	4397	1976	1
6	4402	1980	1
6	4412	1984	1
6	4423	1988	1
6	4434	1992	1
6	4444	1996	1
6	4449	2000	1
6	4459	2004	1
6	4468	2008	1
6	4477	2012	1
6	4486	2016	1
6	4491	2020	1
6	4500	2024	1
6	4521	2032	1
6	4530	2036	1
6	4535	2040	1
6	4544	2044	1
6	4564	2052	1
6	4582	2060	1
6	4591	2064	1
6	4601	2068	1
6	4610	2072	1
6	4619	2076	1
6	4624	2080	1
6	4633	2084	1
6	4643	2088	1
6	4653	2092	1
6	4669	2100	1
6	4690	2108	1
6	4700	2112	1
6	4710	2116	1
6	4715	2120	1
6	4724	2124	1
6	4733	2128	1
6	4743	2132	1
6	4760	2140	1
6	4768	2144	1
6	4777	2148	1
6	4786	2152	1
6	4795	2156	1
6	4800	2160	1
6	4809	2164	1
6	4820	2168	1
6	4832	2172	1
6	4841	2176	1
6	4846	2180	1
6	4854	2184	1
6	4863	2188	1
6	4872	2192	1
6	4882	2196	1
6	4887	2200	1
6	4916	2212	1
6	4925	2216	1
6	4930	2220	1
6	4938	2224	1
6	4949	2228	1
6	4959	2232	1
6	4969	2236	1
6	4974	2240	1
6	4982	2244	1
6	4991	2248	1
6	5001	2252	1
6	5017	2260	1
6	5027	2264	1
6	5038	2268	1
6	5048	2272	1
6	5059	2276	1
6	5064	2280	1
6	5072	2284	1
6	5081	2288	1
6	5091	2292	1
6	5107	2300	1
6	5127	2308	1
6	5138	2312	1
6	5148	2316	1
6	5153	2320	1
6	5162	2324	1
6	5172	2328	1
6	5183	2332	1
6	5193	2336	1
6	5198	2340	1
6	5207	2344	1
6	5231	2352	1
6	5240	2356	1
6	5245	2360	1
6	5253	2364	1
6	5264	2368	1
6	5273	2372	1
6	5283	2376	1
6	5288	2380	1
6	5297	2384	1
6	5307	2388	1
6	5318	2392	1
6	5329	2396	1
6	5334	2400	1
6	5343	2404	1
6	5353	2408	1
6	5364	2412	1
6	5380	2420	1
6	5390	2424	1
6	5402	2428	1
6	5412	2432	1
6	5422	2436	1
6	5427	2440	1
6	5436	2444	1
6	5448	2448	1
6	5458	2452	1
6	5469	2456	1
6	5474	2460	1
6	5483	2464	1
6	5493	2468	1
6	5505	2472	1
6	5514	2476	1
6	5519	2480	1
6	5527	2484	1
6	5536	2488	1
6	5547	2492	1
6	5556	2496	1
6	5561	2500	1
6	5570	2504	1
6	5580	2508	1
[...]
8	3015	1356	1
8	3020	1360	1
8	3029	1364	1
8	3040	1368	1
8	3051	1372	1
8	3061	1376	1
8	3066	1380	1
8	3074	1384	1
8	3084	1388	1
8	3096	1392	1
8	3106	1396	1
8	3111	1400	1
8	3131	1408	1
8	3140	1412	1
8	3150	1416	1
8	3155	1420	1
8	3164	1424	1
8	3174	1428	1
8	3185	1432	1
8	3197	1436	1
8	3202	1440	1
8	3211	1444	1
8	3221	1448	1
8	3232	1452	1
8	3241	1456	1
8	3246	1460	1
8	3254	1464	1
8	3264	1468	1
8	3274	1472	1
8	3287	1476	1
8	3292	1480	1
8	3300	1484	1
8	3309	1488	1
8	3318	1492	1
8	3328	1496	1
8	3333	1500	1
8	3342	1504	1
8	3352	1508	1
8	3364	1512	1
8	3373	1516	1
8	3378	1520	1
8	3386	1524	1
8	3395	1528	1
8	3405	1532	1
8	3416	1536	1
8	3421	1540	1
8	3432	1544	1
8	3441	1548	1
8	3450	1552	1
8	3460	1556	1
8	3465	1560	1
8	3475	1564	1
8	3486	1568	1
8	3497	1572	1
8	3510	1576	1
8	3515	1580	1
8	3523	1584	1
8	3532	1588	1
8	3541	1592	1
8	3550	1596	1
8	3555	1600	1
8	3564	1604	1
8	3574	1608	1
8	3584	1612	1
8	3595	1616	1
8	3600	1620	1
8	3611	1624	1
8	3620	1628	1
8	3630	1632	1
8	3646	1640	1
8	3664	1648	1
8	3673	1652	1
8	3682	1656	1
8	3687	1660	1
8	3696	1664	1
8	3717	1672	1
8	3727	1676	1
8	3732	1680	1
8	3742	1684	1
8	3754	1688	1
8	3763	1692	1
8	3773	1696	1
8	3778	1700	1
8	3810	1712	1
8	3825	1720	1
8	3834	1724	1
8	3844	1728	1
8	3854	1732	1
8	3866	1736	1
8	3871	1740	1
8	3879	1744	1
8	3889	1748	1
8	3916	1760	1
8	3925	1764	1
8	3935	1768	1
8	3945	1772	1
8	3955	1776	1
8	3960	1780	1
8	3980	1788	1
8	3989	1792	1
8	3999	1796	1
8	4004	1800	1
8	4024	1808	1
8	4033	1812	1
8	4044	1816	1
8	4049	1820	1
8	4057	1824	1
8	4066	1828	1
8	4076	1832	1
8	4088	1836	1
8	4093	1840	1
8	4102	1844	1
8	4113	1848	1
8	4125	1852	1
8	4135	1856	1
8	4140	1860	1
8	4149	1864	1
8	4159	1868	1
8	4170	1872	1
8	4181	1876	1
8	4186	1880	1
8	4196	1884	1
8	4217	1892	1
8	4228	1896	1
8	4233	1900	1
8	4241	1904	1
8	4250	1908	1
8	4259	1912	1
8	4268	1916	1
8	4273	1920	1
8	4281	1924	1
8	4291	1928	1
8	4314	1936	1
8	4319	1940	1
8	4327	1944	1
8	4336	1948	1
8	4347	1952	1
8	4356	1956	1
8	4361	1960	1
8	4369	1964	1
8	4378	1968	1
8	4389	1972	1
8	4399	1976	1
8	4404	1980	1
8	4414	1984	1
8	4425	1988	1
8	4436	1992	1
8	4446	1996	1
8	4451	2000	1
8	4461	2004	1
8	4470	2008	1
8	4479	2012	1
8	4488	2016	1
8	4493	2020	1
8	4502	2024	1
8	4514	2028	1
8	4523	2032	1
8	4532	2036	1
8	4537	2040	1
8	4546	2044	1
8	4556	2048	1
8	4566	2052	1
8	4579	2056	1
8	4584	2060	1
8	4593	2064	1
8	4612	2072	1
8	4621	2076	1
8	4626	2080	1
8	4635	2084	1
8	4655	2092	1
8	4666	2096	1
8	4671	2100	1
8	4681	2104	1
8	4712	2116	1
8	4717	2120	1
8	4735	2128	1
8	4745	2132	1
8	4757	2136	1
8	4762	2140	1
8	4770	2144	1
8	4779	2148	1
8	4788	2152	1
8	4797	2156	1
8	4802	2160	1
8	4811	2164	1
8	4843	2176	1
8	4848	2180	1
8	4856	2184	1
8	4865	2188	1
8	4874	2192	1
8	4884	2196	1
8	4889	2200	1
8	4899	2204	1
8	4909	2208	1
8	4918	2212	1
8	4927	2216	1
8	4932	2220	1
8	4940	2224	1
8	4951	2228	1
8	4961	2232	1
8	4971	2236	1
8	4976	2240	1
8	4984	2244	1
8	4993	2248	1
8	5003	2252	1
8	5014	2256	1
8	5019	2260	1
8	5061	2276	1
8	5066	2280	1
8	5074	2284	1
8	5083	2288	1
8	5093	2292	1
8	5104	2296	1
8	5109	2300	1
8	5119	2304	1
8	5129	2308	1
8	5140	2312	1
8	5150	2316	1
8	5155	2320	1
8	5164	2324	1
8	5174	2328	1
8	5185	2332	1
8	5200	2340	1
8	5209	2344	1
8	5220	2348	1
8	5233	2352	1
8	5242	2356	1
8	5247	2360	1
8	5255	2364	1
8	5266	2368	1
8	5275	2372	1
8	5285	2376	1
8	5290	2380	1
8	5299	2384	1
8	5309	2388	1
8	5320	2392	1
8	5331	2396	1
8	5336	2400	1
8	5345	2404	1
8	5355	2408	1
8	5366	2412	1
8	5377	2416	1
8	5382	2420	1
8	5392	2424	1
8	5414	2432	1
8	5424	2436	1
8	5429	2440	1
8	5438	2444	1
8	5450	2448	1
8	5460	2452	1
8	5476	2460	1
8	5495	2468	1
8	5507	2472	1
8	5516	2476	1
8	5521	2480	1
8	5529	2484	1
8	5538	2488	1
8	5549	2492	1
8	5558	2496	1
8	5563	2500	1
8	5572	2504	1
8	5591	2512	1
8	5601	2516	1
8	5606	2520	1
8	5637	2532	1
8	5646	2536	1
8	5651	2540	1
8	5659	2544	1
8	5668	2548	1
8	5677	2552	1
8	5686	2556	1
8	5691	2560	1
8	5699	2564	1
8	5708	2568	1
8	5718	2572	1
8	5734	2580	1
8	5754	2588	1
8	5763	2592	1
8	5772	2596	1
8	5777	2600	1
8	5787	2604	1
8	5796	2608	1
8	5805	2612	1
8	5815	2616	1
8	5820	2620	1
8	5860	2636	1
8	5865	2640	1
8	5873	2644	1
8	5882	2648	1
8	5892	2652	1
8	5908	2660	1
8	5939	2672	1
8	5948	2676	1
8	5953	2680	1
8	5962	2684	1
8	6000	2700	1
8	6041	2716	1
8	6046	2720	1
8	6075	2732	1
8	6084	2736	1
8	6089	2740	1
8	6097	2744	1
8	6107	2748	1
8	6117	2752	1
8	6128	2756	1
8	6133	2760	1
8	6141	2764	1
8	6150	2768	1
8	6160	2772	1
8	6176	2780	1
8	6194	2788	1
8	6204	2792	1
8	6219	2800	1
8	6228	2804	1
8	6239	2808	1
8	6265	2820	1
8	6274	2824	1
8	6285	2828	1
8	6296	2832	1
8	6312	2840	1
8	6322	2844	1
8	6332	2848	1
8	6342	2852	1
8	6357	2860	1
8	6367	2864	1
8	6376	2868	1
8	6385	2872	1
8	6394	2876	1
8	6399	2880	1
8	6407	2884	1
8	6417	2888	1
8	6427	2892	1
8	6437	2896	1
8	6442	2900	1
8	6462	2908	1
8	6471	2912	1
8	6481	2916	1
8	6486	2920	1
8	6496	2924	1
8	6508	2928	1
8	6518	2932	1
8	6529	2936	1
8	6534	2940	1
8	6543	2944	1
8	6553	2948	1
8	6564	2952	1
8	6574	2956	1
8	6579	2960	1
8	6588	2964	1
8	6599	2968	1
8	6610	2972	1
8	6621	2976	1
8	6626	2980	1
8	6648	2988	1
8	6658	2992	1
8	6668	2996	1
8	6673	3000	1
8	6682	3004	1
8	6703	3012	1
8	6713	3016	1
8	6718	3020	1
8	6728	3024	1
8	6749	3032	1
8	6759	3036	1
8	6764	3040	1
8	6774	3044	1
8	6785	3048	1
8	6796	3052	1
8	6807	3056	1
8	6812	3060	1
8	6821	3064	1
8	6831	3068	1
8	6842	3072	1
8	6858	3080	1
8	6879	3088	1
8	6890	3092	1
8	6901	3096	1
8	6906	3100	1
8	6925	3108	1
8	6945	3116	1
8	6950	3120	1
8	6960	3124	1
8	6971	3128	1
8	6982	3132	1
8	6998	3140	1
8	7020	3148	1
8	7029	3152	1
8	7038	3156	1
8	7043	3160	1
8	7051	3164	1
8	7060	3168	1
8	7069	3172	1
8	7079	3176	1
8	7084	3180	1
8	7093	3184	1
8	7104	3188	1
8	7113	3192	1
8	7122	3196	1
8	7127	3200	1
8	7137	3204	1
8	7146	3208	1
8	7155	3212	1
8	7165	3216	1
8	7170	3220	1
8	7181	3224	1
8	7190	3228	1
8	7199	3232	1
8	7209	3236	1
8	7214	3240	1
8	7224	3244	1
8	7234	3248	1
8	7243	3252	1
8	7252	3256	1
8	7257	3260	1
8	7266	3264	1
8	7276	3268	1
8	7285	3272	1
8	7294	3276	1
8	7299	3280	1
8	7309	3284	1
8	7318	3288	1
8	7327	3292	1
8	7336	3296	1
8	7341	3300	1
8	7349	3304	1
8	7359	3308	1
8	7369	3312	1
8	7379	3316	1
8	7384	3320	1
8	7393	3324	1
8	7402	3328	1
8	7412	3332	1
8	7424	3336	1
8	7429	3340	1
8	7437	3344	1
8	7446	3348	1
8	7455	3352	1
8	7464	3356	1
8	7469	3360	1
8	7478	3364	1
8	7489	3368	1
8	7500	3372	1
8	7512	3376	1
8	7517	3380	1
8	7525	3384	1
8	7534	3388	1
8	7544	3392	1
8	7554	3396	1
8	7559	3400	1
8	7569	3404	1
8	7578	3408	1
8	7587	3412	1
8	7596	3416	1
8	7601	3420	1
8	7609	3424	1
8	7619	3428	1
8	7629	3432	1
8	7638	3436	1
8	7643	3440	1
8	7651	3444	1
8	7661	3448	1
8	7673	3452	1
8	7683	3456	1
8	7688	3460	1
8	7698	3464	1
8	7708	3468	1
8	7717	3472	1
8	7726	3476	1
8	7731	3480	1
8	7739	3484	1
8	7748	3488	1
8	7757	3492	1
8	7767	3496	1
8	7772	3500	1
8	7781	3504	1
8	7790	3508	1
8	7800	3512	1
8	7812	3516	1
8	7817	3520	1
8	7825	3524	1
8	7834	3528	1
8	7844	3532	1
8	7856	3536	1
8	7861	3540	1
8	7870	3544	1
8	7889	3552	1
8	7899	3556	1
8	7904	3560	1
8	7914	3564	1
8	7927	3568	1
8	7936	3572	1
8	7945	3576	1
8	7950	3580	1
8	7958	3584	1
8	7967	3588	1
8	7978	3592	1
8	7987	3596	1
8	7992	3600	1
9	69	35	1
9	205	95	1
9	404	185	1
9	518	235	1
9	1008	455	1
9	1100	495	1
9	1231	550	1
9	1305	580	1
9	1413	630	1
9	1437	640	1
9	1576	705	1
9	1638	735	1
9	1684	755	1
9	1750	785	1
9	1761	790	1
9	1785	800	1
9	1796	805	1
9	1859	835	1
9	1874	840	1
9	3113	1400	1
9	3633	1635	1
9	3648	1640	1
9	3699	1665	1
9	3780	1700	1
9	3791	1705	1
9	3813	1715	1
9	3892	1750	1
9	3903	1755	1
9	3962	1780	1
9	4006	1800	1
9	4199	1885	1
9	4294	1930	1
9	4596	2065	1
9	4638	2085	1
9	4684	2105	1
9	4695	2110	1
9	4719	2120	1
9	4814	2165	1
9	4825	2170	1
9	5021	2260	1
9	5032	2265	1
9	5043	2270	1
9	5188	2335	1
9	5395	2425	1
9	5463	2455	1
9	5478	2460	1
9	5575	2505	1
9	5608	2520	1
9	5619	2525	1
9	5721	2575	1
9	5736	2580	1
9	5822	2620	1
9	5833	2625	1
9	5844	2630	1
9	5895	2655	1
9	5910	2660	1
9	5921	2665	1
9	5965	2685	1
9	5976	2690	1
9	5987	2695	1
9	6002	2700	1
9	6013	2705	1
9	6024	2710	1
9	6048	2720	1
9	6059	2725	1
9	6163	2775	1
9	6178	2780	1
9	6207	2795	1
9	6242	2810	1
9	6253	2815	1
9	6299	2835	1
9	6345	2855	1
9	6444	2900	1
9	6628	2980	1
9	6685	3005	1
9	6731	3025	1
9	6845	3075	1
9	6860	3080	1
9	6908	3100	1
9	6928	3110	1
9	6985	3135	1
9	7000	3140	1
9	7873	3545	1
10	69	35	31
10	205	95	87
10	404	185	173
10	518	235	219
10	1008	455	435
10	1100	495	459
10	1231	550	454
10	1305	580	392
10	1413	630	394
10	1437	640	184
10	1576	705	209
10	1638	735	183
10	1684	755	171
10	1750	785	153
10	1761	790	146
10	1785	800	92
10	1796	805	69
10	1859	835	79
10	1874	840	52
10	3113	1400	608
10	3633	1635	831
10	3648	1640	832
10	3699	1665	829
10	3780	1700	856
10	3791	1705	301
10	3813	1715	79
10	3892	1750	106
10	3903	1755	87
10	3962	1780	76
10	4006	1800	92
10	4199	1885	169
10	4294	1930	178
10	4596	2065	309
10	4638	2085	301
10	4684	2105	301
10	4695	2110	222
10	4719	2120	188
10	4814	2165	97
10	4825	2170	82
10	5021	2260	152
10	5032	2265	153
10	5043	2270	146
10	5188	2335	167
10	5395	2425	253
10	5463	2455	191
10	5478	2460	192
10	5575	2505	233
10	5608	2520	184
10	5619	2525	97
10	5721	2575	119
10	5736	2580	116
10	5822	2620	112
10	5833	2625	101
10	5844	2630	102
10	5895	2655	79
10	5910	2660	76
10	5921	2665	41
10	5965	2685	57
10	5976	2690	58
10	5987	2695	39
10	6002	2700	36
10	6013	2705	37
10	6024	2710	22
10	6048	2720	28
10	6059	2725	29
10	6163	2775	71
10	6178	2780	72
10	6207	2795	83
10	6242	2810	86
10	6253	2815	87
10	6299	2835	59
10	6345	2855	71
10	6444	2900	104
10	6628	2980	168
10	6685	3005	189
10	6731	3025	189
10	6845	3075	219
10	6860	3080	176
10	6908	3100	116
10	6928	3110	102
10	6985	3135	107
10	7000	3140	64
10	7873	3545	461
11	69	35	1
11	205	95	1
11	404	185	1
11	518	235	1
11	1008	455	1
11	1100	495	1
11	1231	550	1
11	1305	580	1
11	1413	630	1
11	1437	640	1
11	1576	705	1
11	1638	735	1
11	1684	755	1
11	1750	785	1
11	1761	790	1
11	1785	800	1
11	1796	805	1
11	1859	835	1
11	1874	840	1
11	3113	1400	1
11	3633	1635	1
11	3648	1640	1
11	3699	1665	1
11	3780	1700	1
11	3791	1705	1
11	3813	1715	1
11	3892	1750	1
11	3903	1755	1
11	3962	1780	1
11	4006	1800	1
11	4199	1885	1
11	4294	1930	1
11	4596	2065	1
11	4638	2085	1
11	4684	2105	1
11	4695	2110	1
11	4719	2120	1
11	4814	2165	1
11	4825	2170	1
11	5021	2260	1
11	5032	2265	1
11	5043	2270	1
11	5188	2335	1
11	5395	2425	1
11	5463	2455	1
11	5478	2460	1
11	5575	2505	1
11	5608	2520	1
11	5619	2525	1
11	5721	2575	1
11	5736	2580	1
11	5822	2620	1
11	5833	2625	1
11	5844	2630	1
11	5895	2655	1
11	5910	2660	1
11	5921	2665	1
11	5965	2685	1
11	5976	2690	1
11	5987	2695	1
11	6002	2700	1
11	6013	2705	1
11	6024	2710	1
11	6048	2720	1
11	6059	2725	1
11	6163	2775	1
11	6178	2780	1
11	6207	2795	1
11	6242	2810	1
11	6253	2815	1
11	6299	2835	1
11	6345	2855	1
11	6444	2900	1
11	6628	2980	1
11	6685	3005	1
11	6731	3025	1
11	6845	3075	1
11	6860	3080	1
11	6908	3100	1
11	6928	3110	1
11	6985	3135	1
11	7000	3140	1
11	7873	3545	1
12	84	40	1
12	130	60	1
12	313	145	1
12	642	290	1
12	756	340	1
12	787	355	1
12	811	365	1
12	913	410	1
12	997	450	1
12	1054	475	1
12	1069	480	1
12	1137	510	1
12	1148	515	1
12	1174	525	1
12	1279	570	1
12	1490	665	1
12	1653	740	1
12	1673	750	1
12	1885	845	1
12	1977	885	1
12	1988	890	1
12	2034	910	1
12	2166	970	1
12	2219	995	1
12	2349	1055	1
12	2375	1065	1
12	2419	1085	1
12	2482	1115	1
12	2506	1125	1
12	2517	1130	1
12	2528	1135	1
12	2583	1160	1
12	2627	1180	1
12	2647	1190	1
12	2658	1195	1
12	2735	1230	1
12	2768	1245	1
12	3032	1365	1
12	3043	1370	1
12	3054	1375	1
12	3157	1420	1
12	3214	1445	1
12	3335	1500	1
12	3408	1535	1
12	3500	1575	1
12	3587	1615	1
12	3602	1620	1
12	3734	1680	1
12	3745	1685	1
12	3802	1710	1
12	3837	1725	1
12	4079	1835	1
12	4142	1860	1
12	4162	1870	1
12	4173	1875	1
12	4210	1890	1
12	4505	2025	1
12	4549	2045	1
12	4569	2055	1
12	4658	2095	1
12	4673	2100	1
12	4748	2135	1
12	4891	2200	1
12	4902	2205	1
12	5006	2255	1
12	5096	2295	1
12	5111	2300	1
12	5212	2345	1
12	5369	2415	1
12	6110	2750	1
12	6231	2805	1
12	6277	2825	1
12	6288	2830	1
12	6314	2840	1
12	6325	2845	1
12	6420	2890	1
12	6488	2920	1
12	6499	2925	1
12	6521	2935	1
12	6536	2940	1
12	6567	2955	1
12	6602	2970	1
12	6639	2985	1
12	6661	2995	1
12	6766	3040	1
12	6777	3045	1
12	6788	3050	1
12	6814	3060	1
12	6871	3085	1
12	6882	3090	1
12	6952	3120	1
12	6963	3125	1
12	6974	3130	1
12	7011	3145	1
12	7362	3310	1
12	7481	3365	1
12	7492	3370	1
12	7664	3450	1
12	7690	3460	1
12	7701	3465	1
12	7803	3515	1
12	7847	3535	1
13	84	40	36
13	130	60	52
13	313	145	133
13	642	290	274
13	756	340	320
13	787	355	311
13	811	365	301
13	913	410	262
13	997	450	158
13	1054	475	131
13	1069	480	124
13	1137	510	142
13	1148	515	103
13	1174	525	73
13	1279	570	94
13	1490	665	181
13	1653	740	228
13	1673	750	234
13	1885	845	317
13	1977	885	313
13	1988	890	222
13	2034	910	166
13	2166	970	218
13	2219	995	147
13	2349	1055	167
13	2375	1065	173
13	2419	1085	173
13	2482	1115	143
13	2506	1125	129
13	2517	1130	74
13	2528	1135	67
13	2583	1160	72
13	2627	1180	64
13	2647	1190	62
13	2658	1195	63
13	2735	1230	94
13	2768	1245	81
13	3032	1365	181
13	3043	1370	178
13	3054	1375	179
13	3157	1420	188
13	3214	1445	197
13	3335	1500	132
13	3408	1535	163
13	3500	1575	199
13	3587	1615	191
13	3602	1620	172
13	3734	1680	176
13	3745	1685	149
13	3802	1710	134
13	3837	1725	109
13	4079	1835	211
13	4142	1860	176
13	4162	1870	182
13	4173	1875	163
13	4210	1890	162
13	4505	2025	189
13	4549	2045	181
13	4569	2055	183
13	4658	2095	219
13	4673	2100	208
13	4748	2135	107
13	4891	2200	152
13	4902	2205	149
13	5006	2255	159
13	5096	2295	191
13	5111	2300	164
13	5212	2345	141
13	5369	2415	207
13	6110	2750	494
13	6231	2805	509
13	6277	2825	521
13	6288	2830	482
13	6314	2840	424
13	6325	2845	93
13	6420	2890	82
13	6488	2920	92
13	6499	2925	93
13	6521	2935	91
13	6536	2940	92
13	6567	2955	63
13	6602	2970	46
13	6639	2985	57
13	6661	2995	59
13	6766	3040	96
13	6777	3045	89
13	6788	3050	78
13	6814	3060	72
13	6871	3085	89
13	6882	3090	46
13	6952	3120	72
13	6963	3125	73
13	6974	3130	66
13	7011	3145	57
13	7362	3310	218
13	7481	3365	241
13	7492	3370	242
13	7664	3450	318
13	7690	3460	312
13	7701	3465	153
13	7803	3515	147
13	7847	3535	163
14	84	40	1
14	130	60	1
14	313	145	1
14	642	290	1
14	756	340	1
14	787	355	1
14	811	365	1
14	913	410	1
14	997	450	1
14	1054	475	1
14	1069	480	1
14	1137	510	1
14	1148	515	1
14	1174	525	1
14	1279	570	1
14	1490	665	1
14	1653	740	1
14	1673	750	1
14	1885	845	1
14	1977	885	1
14	1988	890	1
14	2034	910	1
14	2166	970	1
14	2219	995	1
14	2349	1055	1
14	2375	1065	1
14	2419	1085	1
14	2482	1115	1
14	2506	1125	1
14	2517	1130	1
14	2528	1135	1
14	2583	1160	1
14	2627	1180	1
14	2647	1190	1
14	2658	1195	1
14	2735	1230	1
14	2768	1245	1
14	3032	1365	1
14	3043	1370	1
14	3054	1375	1
14	3157	1420	1
14	3214	1445	1
14	3335	1500	1
14	3408	1535	1
14	3500	1575	1
14	3587	1615	1
14	3602	1620	1
14	3734	1680	1
14	3745	1685	1
14	3802	1710	1
14	3837	1725	1
14	4079	1835	1
14	4142	1860	1
14	4162	1870	1
14	4173	1875	1
14	4210	1890	1
14	4505	2025	1
14	4549	2045	1
14	4569	2055	1
14	4658	2095	1
14	4673	2100	1
14	4748	2135	1
14	4891	2200	1
14	4902	2205	1
14	5006	2255	1
14	5096	2295	1
14	5111	2300	1
14	5212	2345	1
14	5369	2415	1
14	6110	2750	1
14	6231	2805	1
14	6277	2825	1
14	6288	2830	1
14	6314	2840	1
14	6325	2845	1
14	6420	2890	1
14	6488	2920	1
14	6499	2925	1
14	6521	2935	1
14	6536	2940	1
14	6567	2955	1
14	6602	2970	1
14	6639	2985	1
14	6661	2995	1
14	6766	3040	1
14	6777	3045	1
14	6788	3050	1
14	6814	3060	1
14	6871	3085	1
14	6882	3090	1
14	6952	3120	1
14	6963	3125	1
14	6974	3130	1
14	7011	3145	1
14	7362	3310	1
14	7481	3365	1
14	7492	3370	1
14	7664	3450	1
14	7690	3460	1
14	7701	3465	1
14	7803	3515	1
14	7847	3535	1
15	106	50	1
15	183	85	1
15	378	175	1
15	426	195	1
15	463	210	1
15	631	285	1
15	730	330	1
15	1185	530	1
15	1242	555	1
15	1268	565	1
15	1290	575	1
15	1391	620	1
15	1907	855	1
15	1922	860	1
15	1942	870	1
15	2012	900	1
15	2023	905	1
15	2102	940	1
15	2122	950	1
15	2199	985	1
15	2263	1015	1
15	2296	1030	1
15	2307	1035	1
15	2364	1060	1
15	2691	1210	1
15	2779	1250	1
15	2790	1255	1
15	2900	1305	1
16	106	50	46
16	183	85	77
16	378	175	163
16	426	195	179
16	463	210	190
16	631	285	233
16	730	330	242
16	1185	530	354
16	1242	555	359
16	1268	565	353
16	1290	575	287
16	1391	620	288
16	1907	855	323
16	1922	860	304
16	1942	870	302
16	2012	900	324
16	2023	905	281
16	2102	940	84
16	2122	950	86
16	2199	985	113
16	2263	1015	111
16	2296	1030	122
16	2307	1035	91
16	2364	1060	108
16	2691	1210	222
16	2779	1250	234
16	2790	1255	223
16	2900	1305	269
17	106	50	1
17	183	85	1
17	378	175	1
17	426	195	1
17	463	210	1
17	631	285	1
17	730	330	1
17	1185	530	1
17	1242	555	1
17	1268	565	1
17	1290	575	1
17	1391	620	1
17	1907	855	1
17	1922	860	1
17	1942	870	1
17	2012	900	1
17	2023	905	1
17	2102	940	1
17	2122	950	1
17	2199	985	1
17	2263	1015	1
17	2296	1030	1
17	2307	1035	1
17	2364	1060	1
17	2691	1210	1
17	2779	1250	1
17	2790	1255	1
17	2900	1305	1
18	333	155	1
18	415	190	1
18	441	200	1
18	496	225	1
18	507	230	1
18	554	250	1
18	587	265	1
18	653	295	1
18	741	335	1
18	831	375	1
18	858	385	1
18	878	395	1
18	1023	460	1
18	1115	500	1
18	1163	520	1
18	2832	1275	1
18	2856	1285	1
18	2935	1320	1
18	2946	1325	1
18	3087	1390	1
18	3177	1430	1
18	3188	1435	1
18	3267	1470	1
18	3355	1510	1
18	3423	1540	1
18	3467	1560	1
18	3478	1565	1
18	3489	1570	1
18	3567	1605	1
18	3857	1735	1
18	3918	1760	1
18	3938	1770	1
18	4017	1805	1
18	4105	1845	1
18	4116	1850	1
18	4188	1880	1
18	4305	1935	1
18	4406	1980	1
18	4417	1985	1
18	4428	1990	1
18	4439	1995	1
18	4964	2235	1
18	5122	2305	1
18	5157	2320	1
18	5177	2330	1
18	5223	2350	1
18	5292	2380	1
18	5312	2390	1
18	5323	2395	1
18	5338	2400	1
18	5358	2410	1
18	5384	2420	1
18	5417	2435	1
18	5441	2445	1
18	5498	2470	1
18	6556	2950	1
18	6591	2965	1
18	6613	2975	1
18	6720	3020	1
18	6799	3055	1
18	6834	3070	1
18	6893	3095	1
18	7086	3180	1
18	7172	3220	1
18	7216	3240	1
18	7227	3245	1
18	7269	3265	1
18	7386	3320	1
18	7415	3335	1
18	7503	3375	1
18	7547	3395	1
18	7622	3430	1
18	7774	3500	1
18	7906	3560	1
18	7917	3565	1
19	333	155	151
19	415	190	182
19	441	200	188
19	496	225	209
19	507	230	210
19	554	250	94
19	587	265	73
19	653	295	91
19	741	335	107
19	831	375	143
19	858	385	133
19	878	395	127
19	1023	460	164
19	1115	500	164
19	1163	520	144
19	2832	1275	887
19	2856	1285	889
19	2935	1320	856
19	2946	1325	821
19	3087	1390	866
19	3177	1430	154
19	3188	1435	147
19	3267	1470	146
19	3355	1510	182
19	3423	1540	148
19	3467	1560	128
19	3478	1565	129
19	3489	1570	98
19	3567	1605	93
19	3857	1735	191
19	3918	1760	196
19	3938	1770	202
19	4017	1805	233
19	4105	1845	237
19	4116	1850	114
19	4188	1880	116
19	4305	1935	163
19	4406	1980	172
19	4417	1985	137
19	4428	1990	138
19	4439	1995	111
19	4964	2235	299
19	5122	2305	321
19	5157	2320	332
19	5177	2330	338
19	5223	2350	354
19	5292	2380	144
19	5312	2390	82
19	5323	2395	71
19	5338	2400	68
19	5358	2410	58
19	5384	2420	36
19	5417	2435	43
19	5441	2445	49
19	5498	2470	66
19	6556	2950	538
19	6591	2965	541
19	6613	2975	539
19	6720	3020	572
19	6799	3055	583
19	6834	3070	118
19	6893	3095	127
19	7086	3180	204
19	7172	3220	196
19	7216	3240	184
19	7227	3245	173
19	7269	3265	169
19	7386	3320	136
19	7415	3335	111
19	7503	3375	131
19	7547	3395	147
19	7622	3430	162
19	7774	3500	176
19	7906	3560	224
19	7917	3565	189
20	333	155	1
20	415	190	1
20	441	200	1
20	496	225	1
20	507	230	1
20	554	250	1
20	587	265	1
20	653	295	1
20	741	335	1
20	831	375	1
20	858	385	1
20	878	395	1
20	1023	460	1
20	1115	500	1
20	1163	520	1
20	2832	1275	1
20	2856	1285	1
20	2935	1320	1
20	2946	1325	1
20	3087	1390	1
20	3177	1430	1
20	3188	1435	1
20	3267	1470	1
20	3355	1510	1
20	3423	1540	1
20	3467	1560	1
20	3478	1565	1
20	3489	1570	1
20	3567	1605	1
20	3857	1735	1
20	3918	1760	1
20	3938	1770	1
20	4017	1805	1
20	4105	1845	1
20	4116	1850	1
20	4188	1880	1
20	4305	1935	1
20	4406	1980	1
20	4417	1985	1
20	4428	1990	1
20	4439	1995	1
20	4964	2235	1
20	5122	2305	1
20	5157	2320	1
20	5177	2330	1
20	5223	2350	1
20	5292	2380	1
20	5312	2390	1
20	5323	2395	1
20	5338	2400	1
20	5358	2410	1
20	5384	2420	1
20	5417	2435	1
20	5441	2445	1
20	5498	2470	1
20	6556	2950	1
20	6591	2965	1
20	6613	2975	1
20	6720	3020	1
20	6799	3055	1
20	6834	3070	1
20	6893	3095	1
20	7086	3180	1
20	7172	3220	1
20	7216	3240	1
20	7227	3245	1
20	7269	3265	1
20	7386	3320	1
20	7415	3335	1
20	7503	3375	1
20	7547	3395	1
20	7622	3430	1
20	7774	3500	1
20	7906	3560	1
20	7917	3565	1

