version 2
run FourthVerification-2-20201214-15:19:43-220826
attr configname FourthVerification
attr datetime 20201214-15:19:43
attr experiment FourthVerification
attr inifile omnetpp.ini
attr iterationvars $0=0.6
attr iterationvarsf 0.6-
attr measurement $0=0.6
attr network slottedNetwork
attr processid 220826
attr repetition 0
attr replication #0
attr resultdir results
attr runnumber 2
attr seedset 2
param **.numTransmitters 50
param **.numChannels 1
param **.bufferSize 5
param **.sendProbability 0.6
param **.expMean 4s
param **.timeSlotSize 5s
param **.thresh 20s
param **.deterministicInterarrivalTime true
param **.numTransmitters 1
param **.numChannels 1
param **.bufferSize 5
param **.sendProbability 1
param **.expMean 5s
param **.timeSlotSize 5s
param **.thresh 20s
param **.deterministicInterarrivalTime false

vector 0 slottedNetwork.transmitters[0] numPacketCreated:vector ETV
attr source numPacketCreatedSignal
vector 1 slottedNetwork.transmitters[1] numPacketCreated:vector ETV
attr source numPacketCreatedSignal
vector 2 slottedNetwork.transmitters[2] numPacketCreated:vector ETV
attr source numPacketCreatedSignal
vector 3 slottedNetwork.transmitters[3] numPacketCreated:vector ETV
attr source numPacketCreatedSignal
vector 4 slottedNetwork.transmitters[4] numPacketCreated:vector ETV
attr source numPacketCreatedSignal
vector 5 slottedNetwork.transmitters[5] numPacketCreated:vector ETV
attr source numPacketCreatedSignal
vector 6 slottedNetwork.transmitters[6] numPacketCreated:vector ETV
attr source numPacketCreatedSignal
vector 7 slottedNetwork.transmitters[7] numPacketCreated:vector ETV
attr source numPacketCreatedSignal
vector 8 slottedNetwork.transmitters[8] numPacketCreated:vector ETV
attr source numPacketCreatedSignal
vector 9 slottedNetwork.transmitters[9] numPacketCreated:vector ETV
attr source numPacketCreatedSignal
vector 10 slottedNetwork.transmitters[10] numPacketCreated:vector ETV
attr source numPacketCreatedSignal
vector 11 slottedNetwork.transmitters[11] numPacketCreated:vector ETV
attr source numPacketCreatedSignal
vector 12 slottedNetwork.transmitters[12] numPacketCreated:vector ETV
attr source numPacketCreatedSignal
vector 13 slottedNetwork.transmitters[13] numPacketCreated:vector ETV
attr source numPacketCreatedSignal
vector 14 slottedNetwork.transmitters[14] numPacketCreated:vector ETV
attr source numPacketCreatedSignal
vector 15 slottedNetwork.transmitters[15] numPacketCreated:vector ETV
attr source numPacketCreatedSignal
vector 16 slottedNetwork.transmitters[16] numPacketCreated:vector ETV
attr source numPacketCreatedSignal
vector 17 slottedNetwork.transmitters[17] numPacketCreated:vector ETV
attr source numPacketCreatedSignal
vector 18 slottedNetwork.transmitters[18] numPacketCreated:vector ETV
attr source numPacketCreatedSignal
vector 19 slottedNetwork.transmitters[19] numPacketCreated:vector ETV
attr source numPacketCreatedSignal
vector 20 slottedNetwork.transmitters[20] numPacketCreated:vector ETV
attr source numPacketCreatedSignal
vector 21 slottedNetwork.transmitters[21] numPacketCreated:vector ETV
attr source numPacketCreatedSignal
vector 22 slottedNetwork.transmitters[22] numPacketCreated:vector ETV
attr source numPacketCreatedSignal
vector 23 slottedNetwork.transmitters[23] numPacketCreated:vector ETV
attr source numPacketCreatedSignal
vector 24 slottedNetwork.transmitters[24] numPacketCreated:vector ETV
attr source numPacketCreatedSignal
vector 25 slottedNetwork.transmitters[25] numPacketCreated:vector ETV
attr source numPacketCreatedSignal
vector 26 slottedNetwork.transmitters[26] numPacketCreated:vector ETV
attr source numPacketCreatedSignal
vector 27 slottedNetwork.transmitters[27] numPacketCreated:vector ETV
attr source numPacketCreatedSignal
vector 28 slottedNetwork.transmitters[28] numPacketCreated:vector ETV
attr source numPacketCreatedSignal
vector 29 slottedNetwork.transmitters[29] numPacketCreated:vector ETV
attr source numPacketCreatedSignal
vector 30 slottedNetwork.transmitters[30] numPacketCreated:vector ETV
attr source numPacketCreatedSignal
vector 31 slottedNetwork.transmitters[31] numPacketCreated:vector ETV
attr source numPacketCreatedSignal
vector 32 slottedNetwork.transmitters[32] numPacketCreated:vector ETV
attr source numPacketCreatedSignal
vector 33 slottedNetwork.transmitters[33] numPacketCreated:vector ETV
attr source numPacketCreatedSignal
vector 34 slottedNetwork.transmitters[34] numPacketCreated:vector ETV
attr source numPacketCreatedSignal
vector 35 slottedNetwork.transmitters[35] numPacketCreated:vector ETV
attr source numPacketCreatedSignal
vector 36 slottedNetwork.transmitters[36] numPacketCreated:vector ETV
attr source numPacketCreatedSignal
vector 37 slottedNetwork.transmitters[37] numPacketCreated:vector ETV
attr source numPacketCreatedSignal
vector 38 slottedNetwork.transmitters[38] numPacketCreated:vector ETV
attr source numPacketCreatedSignal
vector 39 slottedNetwork.transmitters[39] numPacketCreated:vector ETV
attr source numPacketCreatedSignal
vector 40 slottedNetwork.transmitters[40] numPacketCreated:vector ETV
attr source numPacketCreatedSignal
vector 41 slottedNetwork.transmitters[41] numPacketCreated:vector ETV
attr source numPacketCreatedSignal
vector 42 slottedNetwork.transmitters[42] numPacketCreated:vector ETV
attr source numPacketCreatedSignal
vector 43 slottedNetwork.transmitters[43] numPacketCreated:vector ETV
attr source numPacketCreatedSignal
vector 44 slottedNetwork.transmitters[44] numPacketCreated:vector ETV
attr source numPacketCreatedSignal
vector 45 slottedNetwork.transmitters[45] numPacketCreated:vector ETV
attr source numPacketCreatedSignal
vector 46 slottedNetwork.transmitters[46] numPacketCreated:vector ETV
attr source numPacketCreatedSignal
vector 47 slottedNetwork.transmitters[47] numPacketCreated:vector ETV
attr source numPacketCreatedSignal
vector 48 slottedNetwork.transmitters[48] numPacketCreated:vector ETV
attr source numPacketCreatedSignal
vector 49 slottedNetwork.transmitters[49] numPacketCreated:vector ETV
attr source numPacketCreatedSignal
vector 50 slottedNetwork.ch throughput:vector ETV
attr source throughputSignal
vector 51 slottedNetwork.receivers[32] numPacketReceived:vector ETV
attr source numPacketReceivedSignal
vector 52 slottedNetwork.receivers[32] responseTime:vector ETV
attr source responseTimeSignal
vector 53 slottedNetwork.receivers[32] threshold:vector ETV
attr source thresholdSignal
vector 54 slottedNetwork.transmitters[0] numPacketDiscarded:vector ETV
attr source numPacketDiscardedSignal
vector 55 slottedNetwork.transmitters[1] numPacketDiscarded:vector ETV
attr source numPacketDiscardedSignal
vector 56 slottedNetwork.transmitters[2] numPacketDiscarded:vector ETV
attr source numPacketDiscardedSignal
vector 57 slottedNetwork.transmitters[3] numPacketDiscarded:vector ETV
attr source numPacketDiscardedSignal
vector 58 slottedNetwork.transmitters[4] numPacketDiscarded:vector ETV
attr source numPacketDiscardedSignal
vector 59 slottedNetwork.transmitters[5] numPacketDiscarded:vector ETV
attr source numPacketDiscardedSignal
vector 60 slottedNetwork.transmitters[6] numPacketDiscarded:vector ETV
attr source numPacketDiscardedSignal
vector 61 slottedNetwork.transmitters[7] numPacketDiscarded:vector ETV
attr source numPacketDiscardedSignal
vector 62 slottedNetwork.transmitters[8] numPacketDiscarded:vector ETV
attr source numPacketDiscardedSignal
vector 63 slottedNetwork.transmitters[9] numPacketDiscarded:vector ETV
attr source numPacketDiscardedSignal
vector 64 slottedNetwork.transmitters[10] numPacketDiscarded:vector ETV
attr source numPacketDiscardedSignal
vector 65 slottedNetwork.transmitters[11] numPacketDiscarded:vector ETV
attr source numPacketDiscardedSignal
vector 66 slottedNetwork.transmitters[12] numPacketDiscarded:vector ETV
attr source numPacketDiscardedSignal
vector 67 slottedNetwork.transmitters[13] numPacketDiscarded:vector ETV
attr source numPacketDiscardedSignal
vector 68 slottedNetwork.transmitters[14] numPacketDiscarded:vector ETV
attr source numPacketDiscardedSignal
vector 69 slottedNetwork.transmitters[15] numPacketDiscarded:vector ETV
attr source numPacketDiscardedSignal
vector 70 slottedNetwork.transmitters[16] numPacketDiscarded:vector ETV
attr source numPacketDiscardedSignal
vector 71 slottedNetwork.transmitters[17] numPacketDiscarded:vector ETV
attr source numPacketDiscardedSignal
vector 72 slottedNetwork.transmitters[18] numPacketDiscarded:vector ETV
attr source numPacketDiscardedSignal
vector 73 slottedNetwork.transmitters[19] numPacketDiscarded:vector ETV
attr source numPacketDiscardedSignal
vector 74 slottedNetwork.transmitters[20] numPacketDiscarded:vector ETV
attr source numPacketDiscardedSignal
vector 75 slottedNetwork.transmitters[21] numPacketDiscarded:vector ETV
attr source numPacketDiscardedSignal
vector 76 slottedNetwork.transmitters[22] numPacketDiscarded:vector ETV
attr source numPacketDiscardedSignal
vector 77 slottedNetwork.transmitters[23] numPacketDiscarded:vector ETV
attr source numPacketDiscardedSignal
vector 78 slottedNetwork.transmitters[24] numPacketDiscarded:vector ETV
attr source numPacketDiscardedSignal
vector 79 slottedNetwork.transmitters[25] numPacketDiscarded:vector ETV
attr source numPacketDiscardedSignal
vector 80 slottedNetwork.transmitters[26] numPacketDiscarded:vector ETV
attr source numPacketDiscardedSignal
vector 81 slottedNetwork.transmitters[27] numPacketDiscarded:vector ETV
attr source numPacketDiscardedSignal
vector 82 slottedNetwork.transmitters[28] numPacketDiscarded:vector ETV
attr source numPacketDiscardedSignal
vector 83 slottedNetwork.transmitters[29] numPacketDiscarded:vector ETV
attr source numPacketDiscardedSignal
vector 84 slottedNetwork.transmitters[30] numPacketDiscarded:vector ETV
attr source numPacketDiscardedSignal
vector 85 slottedNetwork.transmitters[31] numPacketDiscarded:vector ETV
attr source numPacketDiscardedSignal
vector 86 slottedNetwork.transmitters[33] numPacketDiscarded:vector ETV
attr source numPacketDiscardedSignal
vector 87 slottedNetwork.transmitters[34] numPacketDiscarded:vector ETV
attr source numPacketDiscardedSignal
vector 88 slottedNetwork.transmitters[35] numPacketDiscarded:vector ETV
attr source numPacketDiscardedSignal
vector 89 slottedNetwork.transmitters[36] numPacketDiscarded:vector ETV
attr source numPacketDiscardedSignal
vector 90 slottedNetwork.transmitters[37] numPacketDiscarded:vector ETV
attr source numPacketDiscardedSignal
vector 91 slottedNetwork.transmitters[38] numPacketDiscarded:vector ETV
attr source numPacketDiscardedSignal
vector 92 slottedNetwork.transmitters[39] numPacketDiscarded:vector ETV
attr source numPacketDiscardedSignal
vector 93 slottedNetwork.transmitters[40] numPacketDiscarded:vector ETV
attr source numPacketDiscardedSignal
vector 94 slottedNetwork.transmitters[41] numPacketDiscarded:vector ETV
attr source numPacketDiscardedSignal
vector 95 slottedNetwork.transmitters[42] numPacketDiscarded:vector ETV
attr source numPacketDiscardedSignal
vector 96 slottedNetwork.transmitters[43] numPacketDiscarded:vector ETV
attr source numPacketDiscardedSignal
vector 97 slottedNetwork.transmitters[44] numPacketDiscarded:vector ETV
attr source numPacketDiscardedSignal
vector 98 slottedNetwork.transmitters[45] numPacketDiscarded:vector ETV
attr source numPacketDiscardedSignal
vector 99 slottedNetwork.transmitters[46] numPacketDiscarded:vector ETV
attr source numPacketDiscardedSignal
vector 100 slottedNetwork.transmitters[47] numPacketDiscarded:vector ETV
attr source numPacketDiscardedSignal
vector 101 slottedNetwork.transmitters[48] numPacketDiscarded:vector ETV
attr source numPacketDiscardedSignal
vector 102 slottedNetwork.transmitters[49] numPacketDiscarded:vector ETV
attr source numPacketDiscardedSignal
vector 103 slottedNetwork.transmitters[32] numPacketDiscarded:vector ETV
attr source numPacketDiscardedSignal
vector 104 slottedNetwork.receivers[37] numPacketReceived:vector ETV
attr source numPacketReceivedSignal
vector 105 slottedNetwork.receivers[37] responseTime:vector ETV
attr source responseTimeSignal
vector 106 slottedNetwork.receivers[37] threshold:vector ETV
attr source thresholdSignal
vector 107 slottedNetwork.receivers[20] numPacketReceived:vector ETV
attr source numPacketReceivedSignal
vector 108 slottedNetwork.receivers[20] responseTime:vector ETV
attr source responseTimeSignal
vector 109 slottedNetwork.receivers[20] threshold:vector ETV
attr source thresholdSignal
vector 110 slottedNetwork.receivers[17] numPacketReceived:vector ETV
attr source numPacketReceivedSignal
vector 111 slottedNetwork.receivers[17] responseTime:vector ETV
attr source responseTimeSignal
vector 112 slottedNetwork.receivers[17] threshold:vector ETV
attr source thresholdSignal
vector 113 slottedNetwork.receivers[42] numPacketReceived:vector ETV
attr source numPacketReceivedSignal
vector 114 slottedNetwork.receivers[42] responseTime:vector ETV
attr source responseTimeSignal
vector 115 slottedNetwork.receivers[42] threshold:vector ETV
attr source thresholdSignal
vector 116 slottedNetwork.receivers[38] numPacketReceived:vector ETV
attr source numPacketReceivedSignal
vector 117 slottedNetwork.receivers[38] responseTime:vector ETV
attr source responseTimeSignal
vector 118 slottedNetwork.receivers[38] threshold:vector ETV
attr source thresholdSignal
vector 119 slottedNetwork.receivers[16] numPacketReceived:vector ETV
attr source numPacketReceivedSignal
vector 120 slottedNetwork.receivers[16] responseTime:vector ETV
attr source responseTimeSignal
vector 121 slottedNetwork.receivers[16] threshold:vector ETV
attr source thresholdSignal
vector 122 slottedNetwork.receivers[46] numPacketReceived:vector ETV
attr source numPacketReceivedSignal
vector 123 slottedNetwork.receivers[46] responseTime:vector ETV
attr source responseTimeSignal
vector 124 slottedNetwork.receivers[46] threshold:vector ETV
attr source thresholdSignal
vector 125 slottedNetwork.receivers[5] numPacketReceived:vector ETV
attr source numPacketReceivedSignal
vector 126 slottedNetwork.receivers[5] responseTime:vector ETV
attr source responseTimeSignal
vector 127 slottedNetwork.receivers[5] threshold:vector ETV
attr source thresholdSignal
vector 128 slottedNetwork.receivers[2] numPacketReceived:vector ETV
attr source numPacketReceivedSignal
vector 129 slottedNetwork.receivers[2] responseTime:vector ETV
attr source responseTimeSignal
vector 130 slottedNetwork.receivers[2] threshold:vector ETV
attr source thresholdSignal
vector 131 slottedNetwork.receivers[11] numPacketReceived:vector ETV
attr source numPacketReceivedSignal
vector 132 slottedNetwork.receivers[11] responseTime:vector ETV
attr source responseTimeSignal
vector 133 slottedNetwork.receivers[11] threshold:vector ETV
attr source thresholdSignal
vector 134 slottedNetwork.receivers[41] numPacketReceived:vector ETV
attr source numPacketReceivedSignal
vector 135 slottedNetwork.receivers[41] responseTime:vector ETV
attr source responseTimeSignal
vector 136 slottedNetwork.receivers[41] threshold:vector ETV
attr source thresholdSignal
vector 137 slottedNetwork.receivers[39] numPacketReceived:vector ETV
attr source numPacketReceivedSignal
vector 138 slottedNetwork.receivers[39] responseTime:vector ETV
attr source responseTimeSignal
vector 139 slottedNetwork.receivers[39] threshold:vector ETV
attr source thresholdSignal
vector 140 slottedNetwork.receivers[6] numPacketReceived:vector ETV
attr source numPacketReceivedSignal
vector 141 slottedNetwork.receivers[6] responseTime:vector ETV
attr source responseTimeSignal
vector 142 slottedNetwork.receivers[6] threshold:vector ETV
attr source thresholdSignal
vector 143 slottedNetwork.receivers[45] numPacketReceived:vector ETV
attr source numPacketReceivedSignal
vector 144 slottedNetwork.receivers[45] responseTime:vector ETV
attr source responseTimeSignal
vector 145 slottedNetwork.receivers[45] threshold:vector ETV
attr source thresholdSignal
vector 146 slottedNetwork.receivers[48] numPacketReceived:vector ETV
attr source numPacketReceivedSignal
vector 147 slottedNetwork.receivers[48] responseTime:vector ETV
attr source responseTimeSignal
vector 148 slottedNetwork.receivers[48] threshold:vector ETV
attr source thresholdSignal
vector 149 slottedNetwork.receivers[36] numPacketReceived:vector ETV
attr source numPacketReceivedSignal
vector 150 slottedNetwork.receivers[36] responseTime:vector ETV
attr source responseTimeSignal
vector 151 slottedNetwork.receivers[36] threshold:vector ETV
attr source thresholdSignal
vector 152 slottedNetwork.receivers[21] numPacketReceived:vector ETV
attr source numPacketReceivedSignal
vector 153 slottedNetwork.receivers[21] responseTime:vector ETV
attr source responseTimeSignal
vector 154 slottedNetwork.receivers[21] threshold:vector ETV
attr source thresholdSignal
vector 155 slottedNetwork.receivers[1] numPacketReceived:vector ETV
attr source numPacketReceivedSignal
vector 156 slottedNetwork.receivers[1] responseTime:vector ETV
attr source responseTimeSignal
vector 157 slottedNetwork.receivers[1] threshold:vector ETV
attr source thresholdSignal
vector 158 slottedNetwork.receivers[12] numPacketReceived:vector ETV
attr source numPacketReceivedSignal
vector 159 slottedNetwork.receivers[12] responseTime:vector ETV
attr source responseTimeSignal
vector 160 slottedNetwork.receivers[12] threshold:vector ETV
attr source thresholdSignal
vector 161 slottedNetwork.receivers[15] numPacketReceived:vector ETV
attr source numPacketReceivedSignal
vector 162 slottedNetwork.receivers[15] responseTime:vector ETV
attr source responseTimeSignal
vector 163 slottedNetwork.receivers[15] threshold:vector ETV
attr source thresholdSignal
vector 164 slottedNetwork.receivers[29] numPacketReceived:vector ETV
attr source numPacketReceivedSignal
vector 165 slottedNetwork.receivers[29] responseTime:vector ETV
attr source responseTimeSignal
vector 166 slottedNetwork.receivers[29] threshold:vector ETV
attr source thresholdSignal
vector 167 slottedNetwork.receivers[26] numPacketReceived:vector ETV
attr source numPacketReceivedSignal
vector 168 slottedNetwork.receivers[26] responseTime:vector ETV
attr source responseTimeSignal
vector 169 slottedNetwork.receivers[26] threshold:vector ETV
attr source thresholdSignal
vector 170 slottedNetwork.receivers[49] numPacketReceived:vector ETV
attr source numPacketReceivedSignal
vector 171 slottedNetwork.receivers[49] responseTime:vector ETV
attr source responseTimeSignal
vector 172 slottedNetwork.receivers[49] threshold:vector ETV
attr source thresholdSignal
vector 173 slottedNetwork.receivers[31] numPacketReceived:vector ETV
attr source numPacketReceivedSignal
vector 174 slottedNetwork.receivers[31] responseTime:vector ETV
attr source responseTimeSignal
vector 175 slottedNetwork.receivers[31] threshold:vector ETV
attr source thresholdSignal
vector 176 slottedNetwork.receivers[10] numPacketReceived:vector ETV
attr source numPacketReceivedSignal
vector 177 slottedNetwork.receivers[10] responseTime:vector ETV
attr source responseTimeSignal
vector 178 slottedNetwork.receivers[10] threshold:vector ETV
attr source thresholdSignal
vector 179 slottedNetwork.receivers[33] numPacketReceived:vector ETV
attr source numPacketReceivedSignal
vector 180 slottedNetwork.receivers[33] responseTime:vector ETV
attr source responseTimeSignal
vector 181 slottedNetwork.receivers[33] threshold:vector ETV
attr source thresholdSignal
vector 182 slottedNetwork.receivers[30] numPacketReceived:vector ETV
attr source numPacketReceivedSignal
vector 183 slottedNetwork.receivers[30] responseTime:vector ETV
attr source responseTimeSignal
vector 184 slottedNetwork.receivers[30] threshold:vector ETV
attr source thresholdSignal
vector 185 slottedNetwork.receivers[47] numPacketReceived:vector ETV
attr source numPacketReceivedSignal
vector 186 slottedNetwork.receivers[47] responseTime:vector ETV
attr source responseTimeSignal
vector 187 slottedNetwork.receivers[47] threshold:vector ETV
attr source thresholdSignal
vector 188 slottedNetwork.receivers[28] numPacketReceived:vector ETV
attr source numPacketReceivedSignal
vector 189 slottedNetwork.receivers[28] responseTime:vector ETV
attr source responseTimeSignal
vector 190 slottedNetwork.receivers[28] threshold:vector ETV
attr source thresholdSignal
0	1	4	1
0	131	8	1
0	248	12	1
0	350	16	1
0	401	20	1
0	512	24	1
0	623	28	1
0	735	32	1
0	846	36	1
0	897	40	1
0	1010	44	1
0	1116	48	1
0	1222	52	1
0	1334	56	1
0	1385	60	1
0	1490	64	1
0	1598	68	1
0	1707	72	1
0	1813	76	1
0	1864	80	1
0	1970	84	1
0	2077	88	1
0	2184	92	1
0	2287	96	1
0	2338	100	1
0	2440	104	1
0	2542	108	1
0	2648	112	1
0	2752	116	1
0	2803	120	1
0	2907	124	1
0	3011	128	1
0	3118	132	1
0	3223	136	1
0	3274	140	1
0	3378	144	1
0	3481	148	1
0	3585	152	1
0	3688	156	1
0	3739	160	1
0	3845	164	1
0	3947	168	1
0	4054	172	1
0	4157	176	1
0	4208	180	1
0	4311	184	1
0	4414	188	1
0	4517	192	1
0	4618	196	1
0	4669	200	1
0	4772	204	1
0	4875	208	1
0	4980	212	1
0	5084	216	1
0	5135	220	1
0	5238	224	1
0	5340	228	1
0	5445	232	1
0	5547	236	1
0	5598	240	1
0	5700	244	1
0	5805	248	1
0	5906	252	1
0	6008	256	1
0	6059	260	1
0	6161	264	1
0	6267	268	1
0	6370	272	1
0	6472	276	1
0	6523	280	1
0	6626	284	1
0	6728	288	1
0	6838	292	1
0	6942	296	1
0	6993	300	1
0	7093	304	1
0	7195	308	1
0	7299	312	1
0	7402	316	1
0	7453	320	1
0	7554	324	1
0	7659	328	1
0	7763	332	1
0	7869	336	1
0	7920	340	1
0	8022	344	1
0	8124	348	1
0	8228	352	1
0	8332	356	1
0	8383	360	1
0	8483	364	1
0	8586	368	1
0	8688	372	1
0	8794	376	1
0	8845	380	1
0	8947	384	1
0	9049	388	1
0	9155	392	1
0	9259	396	1
0	9310	400	1
0	9412	404	1
0	9515	408	1
0	9618	412	1
0	9720	416	1
0	9771	420	1
0	9877	424	1
0	9982	428	1
0	10084	432	1
0	10189	436	1
0	10240	440	1
0	10340	444	1
0	10442	448	1
0	10547	452	1
0	10648	456	1
0	10699	460	1
0	10802	464	1
0	10907	468	1
0	11011	472	1
0	11114	476	1
0	11165	480	1
0	11265	484	1
0	11368	488	1
0	11473	492	1
0	11575	496	1
0	11626	500	1
0	11728	504	1
0	11833	508	1
0	11934	512	1
0	12036	516	1
0	12087	520	1
0	12194	524	1
0	12298	528	1
0	12399	532	1
0	12501	536	1
0	12552	540	1
0	12656	544	1
0	12757	548	1
0	12862	552	1
0	12963	556	1
0	13014	560	1
0	13114	564	1
0	13218	568	1
0	13321	572	1
0	13423	576	1
0	13474	580	1
0	13576	584	1
0	13682	588	1
0	13787	592	1
0	13889	596	1
0	13940	600	1
0	14044	604	1
0	14147	608	1
0	14249	612	1
0	14354	616	1
0	14405	620	1
0	14506	624	1
0	14608	628	1
0	14713	632	1
0	14816	636	1
0	14867	640	1
0	14967	644	1
0	15071	648	1
0	15172	652	1
0	15273	656	1
0	15324	660	1
0	15425	664	1
0	15527	668	1
0	15632	672	1
0	15734	676	1
0	15785	680	1
0	15889	684	1
0	15990	688	1
0	16091	692	1
0	16194	696	1
0	16245	700	1
0	16346	704	1
0	16449	708	1
0	16552	712	1
0	16656	716	1
0	16707	720	1
0	16807	724	1
0	16910	728	1
0	17012	732	1
0	17117	736	1
0	17168	740	1
0	17269	744	1
0	17373	748	1
0	17475	752	1
0	17581	756	1
0	17632	760	1
0	17733	764	1
0	17837	768	1
0	17940	772	1
0	18041	776	1
0	18092	780	1
0	18193	784	1
0	18296	788	1
0	18399	792	1
0	18503	796	1
0	18554	800	1
0	18655	804	1
0	18758	808	1
0	18863	812	1
0	18965	816	1
0	19016	820	1
0	19120	824	1
0	19223	828	1
0	19326	832	1
0	19427	836	1
0	19478	840	1
0	19580	844	1
0	19682	848	1
0	19786	852	1
0	19889	856	1
0	19940	860	1
0	20040	864	1
0	20141	868	1
0	20244	872	1
0	20347	876	1
0	20398	880	1
0	20500	884	1
0	20602	888	1
0	20705	892	1
0	20810	896	1
0	20861	900	1
0	20963	904	1
0	21064	908	1
0	21168	912	1
0	21270	916	1
0	21321	920	1
0	21424	924	1
0	21525	928	1
0	21627	932	1
0	21732	936	1
0	21783	940	1
0	21883	944	1
0	21985	948	1
0	22090	952	1
0	22192	956	1
0	22243	960	1
0	22346	964	1
0	22448	968	1
0	22553	972	1
0	22654	976	1
0	22705	980	1
0	22805	984	1
0	22907	988	1
0	23013	992	1
0	23116	996	1
0	23167	1000	1
0	23267	1004	1
0	23369	1008	1
0	23472	1012	1
0	23577	1016	1
0	23628	1020	1
0	23730	1024	1
0	23834	1028	1
0	23935	1032	1
0	24038	1036	1
0	24089	1040	1
0	24189	1044	1
0	24291	1048	1
0	24395	1052	1
0	24497	1056	1
0	24548	1060	1
0	24655	1064	1
0	24757	1068	1
0	24859	1072	1
0	24962	1076	1
0	25013	1080	1
0	25113	1084	1
0	25215	1088	1
0	25318	1092	1
0	25422	1096	1
0	25473	1100	1
0	25576	1104	1
0	25680	1108	1
0	25781	1112	1
0	25885	1116	1
0	25936	1120	1
0	26038	1124	1
0	26140	1128	1
0	26243	1132	1
0	26346	1136	1
0	26397	1140	1
0	26503	1144	1
0	26605	1148	1
0	26709	1152	1
0	26810	1156	1
0	26861	1160	1
0	26962	1164	1
0	27066	1168	1
0	27167	1172	1
0	27269	1176	1
0	27320	1180	1
0	27423	1184	1
0	27524	1188	1
0	27627	1192	1
0	27730	1196	1
0	27781	1200	1
0	27888	1204	1
0	27989	1208	1
0	28091	1212	1
0	28194	1216	1
0	28245	1220	1
0	28348	1224	1
0	28450	1228	1
0	28553	1232	1
0	28658	1236	1
0	28709	1240	1
0	28812	1244	1
0	28915	1248	1
0	29017	1252	1
0	29121	1256	1
0	29172	1260	1
0	29274	1264	1
0	29376	1268	1
0	29478	1272	1
0	29581	1276	1
0	29632	1280	1
0	29732	1284	1
0	29835	1288	1
0	29937	1292	1
0	30040	1296	1
0	30091	1300	1
0	30194	1304	1
0	30296	1308	1
0	30399	1312	1
0	30502	1316	1
0	30553	1320	1
0	30655	1324	1
0	30760	1328	1
0	30863	1332	1
0	30966	1336	1
0	31017	1340	1
0	31119	1344	1
0	31220	1348	1
0	31324	1352	1
0	31426	1356	1
0	31477	1360	1
0	31578	1364	1
0	31681	1368	1
0	31784	1372	1
0	31885	1376	1
0	31936	1380	1
0	32038	1384	1
0	32142	1388	1
0	32244	1392	1
0	32346	1396	1
0	32397	1400	1
0	32497	1404	1
0	32599	1408	1
0	32704	1412	1
0	32805	1416	1
0	32856	1420	1
0	32957	1424	1
0	33061	1428	1
0	33163	1432	1
0	33266	1436	1
0	33317	1440	1
0	33420	1444	1
0	33521	1448	1
0	33623	1452	1
0	33727	1456	1
0	33778	1460	1
0	33881	1464	1
0	33983	1468	1
0	34086	1472	1
0	34189	1476	1
0	34240	1480	1
0	34343	1484	1
0	34449	1488	1
0	34550	1492	1
0	34652	1496	1
0	34703	1500	1
0	34804	1504	1
0	34905	1508	1
0	35008	1512	1
0	35110	1516	1
0	35161	1520	1
0	35264	1524	1
0	35365	1528	1
0	35467	1532	1
0	35572	1536	1
0	35623	1540	1
0	35723	1544	1
0	35824	1548	1
0	35925	1552	1
0	36029	1556	1
0	36080	1560	1
0	36181	1564	1
0	36284	1568	1
0	36388	1572	1
0	36489	1576	1
0	36540	1580	1
0	36641	1584	1
0	36745	1588	1
0	36847	1592	1
0	36951	1596	1
0	37002	1600	1
0	37105	1604	1
0	37206	1608	1
0	37308	1612	1
0	37412	1616	1
0	37463	1620	1
0	37564	1624	1
0	37666	1628	1
0	37769	1632	1
0	37873	1636	1
0	37924	1640	1
0	38024	1644	1
0	38125	1648	1
0	38228	1652	1
0	38329	1656	1
0	38380	1660	1
0	38481	1664	1
0	38584	1668	1
0	38688	1672	1
0	38791	1676	1
0	38842	1680	1
0	38942	1684	1
0	39043	1688	1
0	39147	1692	1
0	39248	1696	1
0	39299	1700	1
0	39400	1704	1
0	39503	1708	1
0	39607	1712	1
0	39708	1716	1
0	39759	1720	1
0	39859	1724	1
0	39962	1728	1
0	40063	1732	1
0	40165	1736	1
0	40216	1740	1
0	40320	1744	1
0	40422	1748	1
0	40526	1752	1
0	40629	1756	1
0	40680	1760	1
0	40780	1764	1
0	40882	1768	1
0	40984	1772	1
0	41090	1776	1
0	41141	1780	1
0	41241	1784	1
0	41342	1788	1
0	41443	1792	1
0	41545	1796	1
0	41596	1800	1
0	41699	1804	1
0	41801	1808	1
0	41904	1812	1
0	42008	1816	1
0	42059	1820	1
0	42159	1824	1
0	42261	1828	1
0	42365	1832	1
0	42467	1836	1
0	42518	1840	1
0	42621	1844	1
0	42723	1848	1
0	42826	1852	1
0	42931	1856	1
0	42982	1860	1
0	43083	1864	1
0	43186	1868	1
0	43290	1872	1
0	43391	1876	1
0	43442	1880	1
0	43544	1884	1
0	43646	1888	1
0	43751	1892	1
0	43853	1896	1
0	43904	1900	1
0	44005	1904	1
0	44109	1908	1
0	44211	1912	1
0	44316	1916	1
0	44367	1920	1
0	44467	1924	1
0	44568	1928	1
0	44669	1932	1
0	44770	1936	1
0	44821	1940	1
0	44923	1944	1
0	45024	1948	1
0	45126	1952	1
0	45230	1956	1
0	45281	1960	1
0	45381	1964	1
0	45482	1968	1
0	45584	1972	1
0	45687	1976	1
0	45738	1980	1
0	45842	1984	1
0	45944	1988	1
0	46047	1992	1
0	46151	1996	1
0	46202	2000	1
0	46303	2004	1
0	46405	2008	1
0	46509	2012	1
0	46612	2016	1
0	46663	2020	1
0	46763	2024	1
0	46866	2028	1
0	46971	2032	1
0	47072	2036	1
0	47123	2040	1
0	47225	2044	1
0	47327	2048	1
0	47431	2052	1
0	47532	2056	1
0	47583	2060	1
0	47684	2064	1
0	47788	2068	1
0	47889	2072	1
0	47990	2076	1
0	48041	2080	1
0	48144	2084	1
0	48247	2088	1
0	48349	2092	1
0	48454	2096	1
0	48505	2100	1
0	48606	2104	1
0	48712	2108	1
0	48814	2112	1
0	48917	2116	1
0	48968	2120	1
0	49071	2124	1
0	49174	2128	1
0	49276	2132	1
0	49380	2136	1
0	49431	2140	1
0	49533	2144	1
0	49634	2148	1
0	49737	2152	1
0	49838	2156	1
0	49889	2160	1
0	49990	2164	1
0	50094	2168	1
0	50197	2172	1
0	50299	2176	1
0	50350	2180	1
0	50452	2184	1
0	50556	2188	1
0	50659	2192	1
0	50762	2196	1
0	50813	2200	1
0	50914	2204	1
0	51017	2208	1
0	51123	2212	1
0	51226	2216	1
0	51277	2220	1
0	51378	2224	1
0	51482	2228	1
0	51584	2232	1
0	51687	2236	1
0	51738	2240	1
0	51842	2244	1
0	51943	2248	1
0	52045	2252	1
0	52149	2256	1
0	52200	2260	1
0	52301	2264	1
0	52405	2268	1
0	52507	2272	1
0	52609	2276	1
0	52660	2280	1
0	52761	2284	1
0	52865	2288	1
0	52970	2292	1
0	53071	2296	1
0	53122	2300	1
0	53223	2304	1
0	53328	2308	1
0	53431	2312	1
0	53532	2316	1
0	53583	2320	1
0	53683	2324	1
0	53785	2328	1
0	53888	2332	1
0	53993	2336	1
0	54044	2340	1
0	54145	2344	1
0	54249	2348	1
0	54353	2352	1
0	54454	2356	1
0	54505	2360	1
0	54607	2364	1
0	54709	2368	1
0	54815	2372	1
0	54916	2376	1
0	54967	2380	1
0	55067	2384	1
0	55168	2388	1
0	55271	2392	1
0	55373	2396	1
0	55424	2400	1
0	55527	2404	1
0	55629	2408	1
0	55731	2412	1
0	55832	2416	1
0	55883	2420	1
0	55985	2424	1
0	56087	2428	1
0	56190	2432	1
0	56294	2436	1
0	56345	2440	1
0	56447	2444	1
0	56548	2448	1
0	56650	2452	1
0	56756	2456	1
0	56807	2460	1
0	56908	2464	1
0	57012	2468	1
0	57113	2472	1
0	57214	2476	1
0	57265	2480	1
0	57366	2484	1
0	57471	2488	1
0	57572	2492	1
0	57674	2496	1
0	57725	2500	1
0	57826	2504	1
0	57928	2508	1
0	58031	2512	1
0	58136	2516	1
0	58187	2520	1
0	58287	2524	1
0	58389	2528	1
0	58492	2532	1
0	58597	2536	1
0	58648	2540	1
0	58749	2544	1
0	58854	2548	1
0	58956	2552	1
0	59059	2556	1
0	59110	2560	1
0	59215	2564	1
0	59316	2568	1
0	59419	2572	1
0	59521	2576	1
0	59572	2580	1
0	59677	2584	1
0	59778	2588	1
0	59880	2592	1
0	59985	2596	1
0	60036	2600	1
0	60136	2604	1
0	60237	2608	1
0	60338	2612	1
0	60440	2616	1
0	60491	2620	1
0	60593	2624	1
0	60696	2628	1
0	60800	2632	1
0	60901	2636	1
0	60952	2640	1
0	61055	2644	1
0	61158	2648	1
0	61259	2652	1
0	61360	2656	1
0	61411	2660	1
0	61514	2664	1
0	61617	2668	1
0	61718	2672	1
0	61819	2676	1
0	61870	2680	1
0	61972	2684	1
0	62073	2688	1
0	62175	2692	1
0	62277	2696	1
0	62328	2700	1
0	62430	2704	1
0	62534	2708	1
0	62635	2712	1
0	62736	2716	1
0	62787	2720	1
0	62888	2724	1
0	62991	2728	1
0	63096	2732	1
0	63197	2736	1
0	63248	2740	1
0	63348	2744	1
0	63450	2748	1
0	63552	2752	1
0	63656	2756	1
0	63707	2760	1
0	63809	2764	1
0	63910	2768	1
0	64012	2772	1
0	64116	2776	1
0	64167	2780	1
0	64268	2784	1
0	64372	2788	1
0	64474	2792	1
0	64577	2796	1
0	64628	2800	1
0	64730	2804	1
0	64833	2808	1
0	64938	2812	1
0	65040	2816	1
0	65091	2820	1
0	65193	2824	1
0	65295	2828	1
0	65399	2832	1
0	65500	2836	1
0	65551	2840	1
0	65651	2844	1
0	65752	2848	1
0	65853	2852	1
0	65955	2856	1
0	66006	2860	1
0	66110	2864	1
0	66212	2868	1
0	66316	2872	1
0	66418	2876	1
0	66469	2880	1
0	66570	2884	1
0	66674	2888	1
0	66775	2892	1
0	66876	2896	1
0	66927	2900	1
0	67027	2904	1
0	67129	2908	1
0	67232	2912	1
0	67336	2916	1
0	67387	2920	1
0	67487	2924	1
0	67588	2928	1
0	67690	2932	1
0	67793	2936	1
0	67844	2940	1
0	67947	2944	1
0	68049	2948	1
0	68152	2952	1
0	68257	2956	1
0	68308	2960	1
0	68409	2964	1
0	68513	2968	1
0	68614	2972	1
0	68715	2976	1
0	68766	2980	1
0	68869	2984	1
0	68972	2988	1
0	69073	2992	1
0	69174	2996	1
0	69225	3000	1
0	69328	3004	1
0	69429	3008	1
0	69530	3012	1
0	69633	3016	1
0	69684	3020	1
0	69784	3024	1
0	69885	3028	1
0	69986	3032	1
0	70087	3036	1
0	70138	3040	1
0	70239	3044	1
0	70342	3048	1
0	70445	3052	1
0	70550	3056	1
0	70601	3060	1
0	70701	3064	1
0	70802	3068	1
0	70903	3072	1
0	71005	3076	1
0	71056	3080	1
0	71158	3084	1
0	71262	3088	1
0	71365	3092	1
0	71466	3096	1
0	71517	3100	1
0	71618	3104	1
0	71721	3108	1
0	71825	3112	1
0	71926	3116	1
0	71977	3120	1
0	72078	3124	1
0	72183	3128	1
0	72284	3132	1
0	72386	3136	1
0	72437	3140	1
0	72539	3144	1
0	72642	3148	1
0	72744	3152	1
0	72846	3156	1
0	72897	3160	1
0	73001	3164	1
0	73102	3168	1
0	73203	3172	1
0	73305	3176	1
0	73356	3180	1
0	73459	3184	1
0	73561	3188	1
0	73665	3192	1
0	73766	3196	1
0	73817	3200	1
0	73918	3204	1
0	74022	3208	1
0	74125	3212	1
0	74227	3216	1
0	74278	3220	1
0	74381	3224	1
0	74484	3228	1
0	74585	3232	1
0	74687	3236	1
0	74738	3240	1
0	74840	3244	1
0	74946	3248	1
0	75047	3252	1
0	75150	3256	1
0	75201	3260	1
0	75302	3264	1
0	75406	3268	1
0	75507	3272	1
0	75610	3276	1
0	75661	3280	1
0	75763	3284	1
0	75864	3288	1
0	75966	3292	1
0	76071	3296	1
0	76122	3300	1
0	76223	3304	1
0	76327	3308	1
0	76428	3312	1
0	76530	3316	1
0	76581	3320	1
0	76684	3324	1
0	76785	3328	1
0	76886	3332	1
0	76989	3336	1
0	77040	3340	1
0	77141	3344	1
0	77245	3348	1
0	77350	3352	1
0	77452	3356	1
0	77503	3360	1
0	77605	3364	1
0	77708	3368	1
0	77811	3372	1
0	77917	3376	1
0	77968	3380	1
0	78069	3384	1
0	78173	3388	1
0	78274	3392	1
0	78375	3396	1
0	78426	3400	1
0	78527	3404	1
0	78631	3408	1
0	78734	3412	1
0	78835	3416	1
0	78886	3420	1
0	78988	3424	1
0	79090	3428	1
0	79192	3432	1
0	79297	3436	1
0	79348	3440	1
0	79448	3444	1
0	79551	3448	1
0	79652	3452	1
0	79754	3456	1
0	79805	3460	1
0	79907	3464	1
0	80011	3468	1
0	80113	3472	1
0	80216	3476	1
0	80267	3480	1
0	80369	3484	1
0	80473	3488	1
0	80575	3492	1
0	80679	3496	1
0	80730	3500	1
0	80830	3504	1
0	80933	3508	1
0	81035	3512	1
0	81140	3516	1
0	81191	3520	1
0	81291	3524	1
0	81392	3528	1
0	81494	3532	1
0	81598	3536	1
0	81649	3540	1
0	81750	3544	1
0	81854	3548	1
0	81956	3552	1
0	82060	3556	1
0	82111	3560	1
0	82213	3564	1
0	82315	3568	1
0	82417	3572	1
0	82521	3576	1
0	82572	3580	1
0	82672	3584	1
0	82773	3588	1
0	82876	3592	1
0	82978	3596	1
0	83029	3600	1
1	2	4	1
1	132	8	1
1	249	12	1
1	351	16	1
1	402	20	1
1	513	24	1
1	624	28	1
1	736	32	1
1	847	36	1
1	898	40	1
1	1011	44	1
1	1117	48	1
1	1223	52	1
1	1335	56	1
1	1386	60	1
1	1491	64	1
1	1599	68	1
1	1708	72	1
1	1814	76	1
1	1865	80	1
1	1971	84	1
1	2078	88	1
1	2185	92	1
1	2288	96	1
1	2339	100	1
1	2441	104	1
1	2543	108	1
1	2649	112	1
1	2753	116	1
1	2804	120	1
1	2908	124	1
1	3012	128	1
1	3119	132	1
1	3224	136	1
1	3275	140	1
1	3379	144	1
1	3482	148	1
1	3586	152	1
1	3689	156	1
1	3740	160	1
1	3846	164	1
1	3948	168	1
1	4055	172	1
1	4158	176	1
1	4209	180	1
1	4312	184	1
1	4415	188	1
1	4518	192	1
1	4619	196	1
1	4670	200	1
1	4773	204	1
1	4876	208	1
1	4981	212	1
1	5085	216	1
1	5136	220	1
1	5239	224	1
1	5341	228	1
1	5446	232	1
1	5548	236	1
1	5599	240	1
1	5701	244	1
1	5806	248	1
1	5907	252	1
1	6009	256	1
1	6060	260	1
1	6162	264	1
1	6268	268	1
1	6371	272	1
1	6473	276	1
1	6524	280	1
1	6627	284	1
1	6729	288	1
1	6839	292	1
1	6943	296	1
1	6994	300	1
1	7094	304	1
1	7196	308	1
1	7300	312	1
1	7403	316	1
1	7454	320	1
1	7555	324	1
1	7660	328	1
1	7764	332	1
1	7870	336	1
1	7921	340	1
1	8023	344	1
1	8125	348	1
1	8229	352	1
1	8333	356	1
1	8384	360	1
1	8484	364	1
1	8587	368	1
1	8689	372	1
1	8795	376	1
1	8846	380	1
1	8948	384	1
1	9050	388	1
1	9156	392	1
1	9260	396	1
1	9311	400	1
1	9413	404	1
1	9516	408	1
1	9619	412	1
1	9721	416	1
1	9772	420	1
1	9878	424	1
1	9983	428	1
1	10085	432	1
1	10190	436	1
1	10241	440	1
1	10341	444	1
1	10443	448	1
1	10548	452	1
1	10649	456	1
1	10700	460	1
1	10803	464	1
1	10908	468	1
1	11012	472	1
1	11115	476	1
1	11166	480	1
1	11266	484	1
1	11369	488	1
1	11474	492	1
1	11576	496	1
1	11627	500	1
1	11729	504	1
1	11834	508	1
1	11935	512	1
1	12037	516	1
1	12088	520	1
1	12195	524	1
1	12299	528	1
1	12400	532	1
1	12502	536	1
1	12553	540	1
1	12657	544	1
1	12758	548	1
1	12863	552	1
1	12964	556	1
1	13015	560	1
1	13115	564	1
1	13219	568	1
1	13322	572	1
1	13424	576	1
1	13475	580	1
1	13577	584	1
1	13683	588	1
1	13788	592	1
1	13890	596	1
1	13941	600	1
1	14045	604	1
1	14148	608	1
1	14250	612	1
1	14355	616	1
1	14406	620	1
1	14507	624	1
1	14609	628	1
1	14714	632	1
1	14817	636	1
1	14868	640	1
1	14968	644	1
1	15072	648	1
1	15173	652	1
1	15274	656	1
1	15325	660	1
1	15426	664	1
1	15528	668	1
1	15633	672	1
1	15735	676	1
1	15786	680	1
1	15890	684	1
1	15991	688	1
1	16092	692	1
1	16195	696	1
1	16246	700	1
1	16347	704	1
1	16450	708	1
1	16553	712	1
1	16657	716	1
1	16708	720	1
1	16808	724	1
1	16911	728	1
1	17013	732	1
1	17118	736	1
1	17169	740	1
1	17270	744	1
1	17374	748	1
1	17476	752	1
1	17582	756	1
1	17633	760	1
1	17734	764	1
1	17838	768	1
1	17941	772	1
1	18042	776	1
1	18093	780	1
1	18194	784	1
1	18297	788	1
1	18400	792	1
1	18504	796	1
1	18555	800	1
1	18656	804	1
1	18759	808	1
1	18864	812	1
1	18966	816	1
1	19017	820	1
1	19121	824	1
1	19224	828	1
1	19327	832	1
1	19428	836	1
1	19479	840	1
1	19581	844	1
1	19683	848	1
1	19787	852	1
1	19890	856	1
1	19941	860	1
1	20041	864	1
1	20142	868	1
1	20245	872	1
1	20348	876	1
1	20399	880	1
1	20501	884	1
1	20603	888	1
1	20706	892	1
1	20811	896	1
1	20862	900	1
1	20964	904	1
1	21065	908	1
1	21169	912	1
1	21271	916	1
1	21322	920	1
1	21425	924	1
1	21526	928	1
1	21628	932	1
1	21733	936	1
1	21784	940	1
1	21884	944	1
1	21986	948	1
1	22091	952	1
1	22193	956	1
1	22244	960	1
1	22347	964	1
1	22449	968	1
1	22554	972	1
1	22655	976	1
1	22706	980	1
1	22806	984	1
1	22908	988	1
1	23014	992	1
1	23117	996	1
1	23168	1000	1
1	23268	1004	1
1	23370	1008	1
1	23473	1012	1
1	23578	1016	1
1	23629	1020	1
1	23731	1024	1
1	23835	1028	1
1	23936	1032	1
1	24039	1036	1
1	24090	1040	1
1	24190	1044	1
1	24292	1048	1
1	24396	1052	1
1	24498	1056	1
1	24549	1060	1
1	24656	1064	1
1	24758	1068	1
1	24860	1072	1
1	24963	1076	1
1	25014	1080	1
1	25114	1084	1
1	25216	1088	1
1	25319	1092	1
1	25423	1096	1
1	25474	1100	1
1	25577	1104	1
1	25681	1108	1
1	25782	1112	1
1	25886	1116	1
1	25937	1120	1
1	26039	1124	1
1	26141	1128	1
1	26244	1132	1
1	26347	1136	1
1	26398	1140	1
1	26504	1144	1
1	26606	1148	1
1	26710	1152	1
1	26811	1156	1
1	26862	1160	1
1	26963	1164	1
1	27067	1168	1
1	27168	1172	1
1	27270	1176	1
1	27321	1180	1
1	27424	1184	1
1	27525	1188	1
1	27628	1192	1
1	27731	1196	1
1	27782	1200	1
1	27889	1204	1
1	27990	1208	1
1	28092	1212	1
1	28195	1216	1
1	28246	1220	1
1	28349	1224	1
1	28451	1228	1
1	28554	1232	1
1	28659	1236	1
1	28710	1240	1
1	28813	1244	1
1	28916	1248	1
1	29018	1252	1
1	29122	1256	1
1	29173	1260	1
1	29275	1264	1
1	29377	1268	1
1	29479	1272	1
1	29582	1276	1
1	29633	1280	1
1	29733	1284	1
1	29836	1288	1
1	29938	1292	1
1	30041	1296	1
1	30092	1300	1
1	30195	1304	1
1	30297	1308	1
1	30400	1312	1
1	30503	1316	1
1	30554	1320	1
1	30656	1324	1
1	30761	1328	1
1	30864	1332	1
1	30967	1336	1
1	31018	1340	1
1	31120	1344	1
1	31221	1348	1
1	31325	1352	1
1	31427	1356	1
1	31478	1360	1
1	31579	1364	1
1	31682	1368	1
1	31785	1372	1
1	31886	1376	1
1	31937	1380	1
1	32039	1384	1
1	32143	1388	1
1	32245	1392	1
1	32347	1396	1
1	32398	1400	1
1	32498	1404	1
1	32600	1408	1
1	32705	1412	1
1	32806	1416	1
1	32857	1420	1
1	32958	1424	1
1	33062	1428	1
1	33164	1432	1
1	33267	1436	1
1	33318	1440	1
1	33421	1444	1
1	33522	1448	1
1	33624	1452	1
1	33728	1456	1
1	33779	1460	1
1	33882	1464	1
1	33984	1468	1
1	34087	1472	1
1	34190	1476	1
1	34241	1480	1
1	34344	1484	1
1	34450	1488	1
1	34551	1492	1
1	34653	1496	1
1	34704	1500	1
1	34805	1504	1
1	34906	1508	1
1	35009	1512	1
1	35111	1516	1
1	35162	1520	1
1	35265	1524	1
1	35366	1528	1
1	35468	1532	1
1	35573	1536	1
1	35624	1540	1
1	35724	1544	1
1	35825	1548	1
1	35926	1552	1
1	36030	1556	1
1	36081	1560	1
1	36182	1564	1
1	36285	1568	1
1	36389	1572	1
1	36490	1576	1
1	36541	1580	1
1	36642	1584	1
1	36746	1588	1
1	36848	1592	1
1	36952	1596	1
1	37003	1600	1
1	37106	1604	1
1	37207	1608	1
1	37309	1612	1
1	37413	1616	1
1	37464	1620	1
1	37565	1624	1
1	37667	1628	1
1	37770	1632	1
1	37874	1636	1
1	37925	1640	1
1	38025	1644	1
1	38126	1648	1
1	38229	1652	1
1	38330	1656	1
1	38381	1660	1
1	38482	1664	1
1	38585	1668	1
1	38689	1672	1
1	38792	1676	1
1	38843	1680	1
1	38943	1684	1
1	39044	1688	1
1	39148	1692	1
1	39249	1696	1
1	39300	1700	1
1	39401	1704	1
1	39504	1708	1
1	39608	1712	1
1	39709	1716	1
1	39760	1720	1
1	39860	1724	1
1	39963	1728	1
1	40064	1732	1
1	40166	1736	1
1	40217	1740	1
1	40321	1744	1
1	40423	1748	1
1	40527	1752	1
1	40630	1756	1
1	40681	1760	1
1	40781	1764	1
1	40883	1768	1
1	40985	1772	1
1	41091	1776	1
1	41142	1780	1
1	41242	1784	1
1	41343	1788	1
1	41444	1792	1
1	41546	1796	1
1	41597	1800	1
1	41700	1804	1
1	41802	1808	1
1	41905	1812	1
1	42009	1816	1
1	42060	1820	1
1	42160	1824	1
1	42262	1828	1
1	42366	1832	1
1	42468	1836	1
1	42519	1840	1
1	42622	1844	1
1	42724	1848	1
1	42827	1852	1
1	42932	1856	1
1	42983	1860	1
1	43084	1864	1
1	43187	1868	1
1	43291	1872	1
1	43392	1876	1
1	43443	1880	1
1	43545	1884	1
1	43647	1888	1
1	43752	1892	1
1	43854	1896	1
1	43905	1900	1
1	44006	1904	1
1	44110	1908	1
1	44212	1912	1
1	44317	1916	1
1	44368	1920	1
1	44468	1924	1
1	44569	1928	1
1	44670	1932	1
1	44771	1936	1
1	44822	1940	1
1	44924	1944	1
1	45025	1948	1
1	45127	1952	1
1	45231	1956	1
1	45282	1960	1
1	45382	1964	1
1	45483	1968	1
1	45585	1972	1
1	45688	1976	1
1	45739	1980	1
1	45843	1984	1
1	45945	1988	1
1	46048	1992	1
1	46152	1996	1
1	46203	2000	1
1	46304	2004	1
1	46406	2008	1
1	46510	2012	1
1	46613	2016	1
1	46664	2020	1
1	46764	2024	1
1	46867	2028	1
1	46972	2032	1
1	47073	2036	1
1	47124	2040	1
1	47226	2044	1
1	47328	2048	1
1	47432	2052	1
1	47533	2056	1
1	47584	2060	1
1	47685	2064	1
1	47789	2068	1
1	47890	2072	1
1	47991	2076	1
1	48042	2080	1
1	48145	2084	1
1	48248	2088	1
1	48350	2092	1
1	48455	2096	1
1	48506	2100	1
1	48607	2104	1
1	48713	2108	1
1	48815	2112	1
1	48918	2116	1
1	48969	2120	1
1	49072	2124	1
1	49175	2128	1
1	49277	2132	1
1	49381	2136	1
1	49432	2140	1
1	49534	2144	1
1	49635	2148	1
1	49738	2152	1
1	49839	2156	1
1	49890	2160	1
1	49991	2164	1
1	50095	2168	1
1	50198	2172	1
1	50300	2176	1
1	50351	2180	1
1	50453	2184	1
1	50557	2188	1
1	50660	2192	1
1	50763	2196	1
1	50814	2200	1
1	50915	2204	1
1	51018	2208	1
1	51124	2212	1
1	51227	2216	1
1	51278	2220	1
1	51379	2224	1
1	51483	2228	1
1	51585	2232	1
1	51688	2236	1
1	51739	2240	1
1	51843	2244	1
1	51944	2248	1
1	52046	2252	1
1	52150	2256	1
1	52201	2260	1
1	52302	2264	1
1	52406	2268	1
1	52508	2272	1
1	52610	2276	1
1	52661	2280	1
1	52762	2284	1
1	52866	2288	1
1	52971	2292	1
1	53072	2296	1
1	53123	2300	1
1	53224	2304	1
1	53329	2308	1
1	53432	2312	1
1	53533	2316	1
1	53584	2320	1
1	53684	2324	1
1	53786	2328	1
1	53889	2332	1
1	53994	2336	1
1	54045	2340	1
1	54146	2344	1
1	54250	2348	1
1	54354	2352	1
1	54455	2356	1
1	54506	2360	1
1	54608	2364	1
1	54710	2368	1
1	54816	2372	1
1	54917	2376	1
1	54968	2380	1
1	55068	2384	1
1	55169	2388	1
1	55272	2392	1
1	55374	2396	1
1	55425	2400	1
1	55528	2404	1
1	55630	2408	1
1	55732	2412	1
1	55833	2416	1
1	55884	2420	1
1	55986	2424	1
1	56088	2428	1
1	56191	2432	1
1	56295	2436	1
1	56346	2440	1
1	56448	2444	1
1	56549	2448	1
1	56651	2452	1
1	56757	2456	1
1	56808	2460	1
1	56909	2464	1
1	57013	2468	1
1	57114	2472	1
1	57215	2476	1
1	57266	2480	1
1	57367	2484	1
1	57472	2488	1
1	57573	2492	1
1	57675	2496	1
1	57726	2500	1
1	57827	2504	1
1	57929	2508	1
1	58032	2512	1
1	58137	2516	1
1	58188	2520	1
1	58288	2524	1
1	58390	2528	1
1	58493	2532	1
1	58598	2536	1
1	58649	2540	1
1	58750	2544	1
1	58855	2548	1
1	58957	2552	1
1	59060	2556	1
1	59111	2560	1
1	59216	2564	1
1	59317	2568	1
1	59420	2572	1
1	59522	2576	1
1	59573	2580	1
1	59678	2584	1
1	59779	2588	1
1	59881	2592	1
1	59986	2596	1
1	60037	2600	1
1	60137	2604	1
1	60238	2608	1
1	60339	2612	1
1	60441	2616	1
1	60492	2620	1
1	60594	2624	1
1	60697	2628	1
1	60801	2632	1
1	60902	2636	1
1	60953	2640	1
1	61056	2644	1
1	61159	2648	1
1	61260	2652	1
1	61361	2656	1
1	61412	2660	1
1	61515	2664	1
1	61618	2668	1
1	61719	2672	1
1	61820	2676	1
1	61871	2680	1
1	61973	2684	1
1	62074	2688	1
1	62176	2692	1
1	62278	2696	1
1	62329	2700	1
1	62431	2704	1
1	62535	2708	1
1	62636	2712	1
1	62737	2716	1
1	62788	2720	1
1	62889	2724	1
1	62992	2728	1
1	63097	2732	1
1	63198	2736	1
1	63249	2740	1
1	63349	2744	1
1	63451	2748	1
1	63553	2752	1
1	63657	2756	1
1	63708	2760	1
1	63810	2764	1
1	63911	2768	1
1	64013	2772	1
1	64117	2776	1
1	64168	2780	1
1	64269	2784	1
1	64373	2788	1
1	64475	2792	1
1	64578	2796	1
1	64629	2800	1
1	64731	2804	1
1	64834	2808	1
1	64939	2812	1
1	65041	2816	1
1	65092	2820	1
1	65194	2824	1
1	65296	2828	1
1	65400	2832	1
1	65501	2836	1
1	65552	2840	1
1	65652	2844	1
1	65753	2848	1
1	65854	2852	1
1	65956	2856	1
1	66007	2860	1
1	66111	2864	1
1	66213	2868	1
1	66317	2872	1
1	66419	2876	1
1	66470	2880	1
1	66571	2884	1
1	66675	2888	1
1	66776	2892	1
1	66877	2896	1
1	66928	2900	1
1	67028	2904	1
1	67130	2908	1
1	67233	2912	1
1	67337	2916	1
1	67388	2920	1
1	67488	2924	1
1	67589	2928	1
1	67691	2932	1
1	67794	2936	1
1	67845	2940	1
1	67948	2944	1
1	68050	2948	1
1	68153	2952	1
1	68258	2956	1
1	68309	2960	1
1	68410	2964	1
1	68514	2968	1
1	68615	2972	1
1	68716	2976	1
1	68767	2980	1
1	68870	2984	1
1	68973	2988	1
1	69074	2992	1
1	69175	2996	1
1	69226	3000	1
1	69329	3004	1
1	69430	3008	1
1	69531	3012	1
1	69634	3016	1
1	69685	3020	1
1	69785	3024	1
1	69886	3028	1
1	69987	3032	1
1	70088	3036	1
1	70139	3040	1
1	70240	3044	1
1	70343	3048	1
1	70446	3052	1
1	70551	3056	1
1	70602	3060	1
1	70702	3064	1
1	70803	3068	1
1	70904	3072	1
1	71006	3076	1
1	71057	3080	1
1	71159	3084	1
1	71263	3088	1
1	71366	3092	1
1	71467	3096	1
1	71518	3100	1
1	71619	3104	1
1	71722	3108	1
1	71826	3112	1
1	71927	3116	1
1	71978	3120	1
1	72079	3124	1
1	72184	3128	1
1	72285	3132	1
1	72387	3136	1
1	72438	3140	1
1	72540	3144	1
1	72643	3148	1
1	72745	3152	1
1	72847	3156	1
1	72898	3160	1
1	73002	3164	1
1	73103	3168	1
1	73204	3172	1
1	73306	3176	1
1	73357	3180	1
1	73460	3184	1
1	73562	3188	1
1	73666	3192	1
1	73767	3196	1
1	73818	3200	1
1	73919	3204	1
1	74023	3208	1
1	74126	3212	1
1	74228	3216	1
1	74279	3220	1
1	74382	3224	1
1	74485	3228	1
1	74586	3232	1
1	74688	3236	1
1	74739	3240	1
1	74841	3244	1
1	74947	3248	1
1	75048	3252	1
1	75151	3256	1
1	75202	3260	1
1	75303	3264	1
1	75407	3268	1
1	75508	3272	1
1	75611	3276	1
1	75662	3280	1
1	75764	3284	1
1	75865	3288	1
1	75967	3292	1
1	76072	3296	1
1	76123	3300	1
1	76224	3304	1
1	76328	3308	1
1	76429	3312	1
1	76531	3316	1
1	76582	3320	1
1	76685	3324	1
1	76786	3328	1
1	76887	3332	1
1	76990	3336	1
1	77041	3340	1
1	77142	3344	1
1	77246	3348	1
1	77351	3352	1
1	77453	3356	1
1	77504	3360	1
1	77606	3364	1
1	77709	3368	1
1	77812	3372	1
1	77918	3376	1
1	77969	3380	1
1	78070	3384	1
1	78174	3388	1
1	78275	3392	1
1	78376	3396	1
1	78427	3400	1
1	78528	3404	1
1	78632	3408	1
1	78735	3412	1
1	78836	3416	1
1	78887	3420	1
1	78989	3424	1
1	79091	3428	1
1	79193	3432	1
1	79298	3436	1
1	79349	3440	1
1	79449	3444	1
1	79552	3448	1
1	79653	3452	1
1	79755	3456	1
1	79806	3460	1
1	79908	3464	1
1	80012	3468	1
1	80114	3472	1
1	80217	3476	1
1	80268	3480	1
1	80370	3484	1
1	80474	3488	1
1	80576	3492	1
1	80680	3496	1
1	80731	3500	1
1	80831	3504	1
1	80934	3508	1
1	81036	3512	1
1	81141	3516	1
1	81192	3520	1
1	81292	3524	1
1	81393	3528	1
1	81495	3532	1
1	81599	3536	1
1	81650	3540	1
1	81751	3544	1
1	81855	3548	1
1	81957	3552	1
1	82061	3556	1
1	82112	3560	1
1	82214	3564	1
1	82316	3568	1
1	82418	3572	1
1	82522	3576	1
1	82573	3580	1
1	82673	3584	1
1	82774	3588	1
1	82877	3592	1
1	82979	3596	1
1	83030	3600	1
2	3	4	1
2	133	8	1
2	250	12	1
2	352	16	1
2	403	20	1
2	514	24	1
2	625	28	1
2	737	32	1
2	848	36	1
2	899	40	1
2	1012	44	1
2	1118	48	1
2	1224	52	1
2	1336	56	1
2	1387	60	1
2	1492	64	1
2	1600	68	1
2	1709	72	1
2	1815	76	1
2	1866	80	1
2	1972	84	1
2	2079	88	1
2	2186	92	1
2	2289	96	1
2	2340	100	1
2	2442	104	1
2	2544	108	1
2	2650	112	1
2	2754	116	1
2	2805	120	1
2	2909	124	1
2	3013	128	1
2	3120	132	1
2	3225	136	1
2	3276	140	1
2	3380	144	1
2	3483	148	1
2	3587	152	1
2	3690	156	1
2	3741	160	1
2	3847	164	1
2	3949	168	1
2	4056	172	1
2	4159	176	1
2	4210	180	1
2	4313	184	1
2	4416	188	1
2	4519	192	1
2	4620	196	1
2	4671	200	1
2	4774	204	1
2	4877	208	1
2	4982	212	1
2	5086	216	1
2	5137	220	1
2	5240	224	1
2	5342	228	1
2	5447	232	1
2	5549	236	1
2	5600	240	1
2	5702	244	1
2	5807	248	1
2	5908	252	1
2	6010	256	1
2	6061	260	1
2	6163	264	1
2	6269	268	1
2	6372	272	1
2	6474	276	1
2	6525	280	1
2	6628	284	1
2	6730	288	1
2	6840	292	1
2	6944	296	1
2	6995	300	1
2	7095	304	1
2	7197	308	1
2	7301	312	1
2	7404	316	1
2	7455	320	1
2	7556	324	1
2	7661	328	1
2	7765	332	1
2	7871	336	1
2	7922	340	1
2	8024	344	1
2	8126	348	1
2	8230	352	1
2	8334	356	1
2	8385	360	1
2	8485	364	1
2	8588	368	1
2	8690	372	1
2	8796	376	1
2	8847	380	1
2	8949	384	1
2	9051	388	1
2	9157	392	1
2	9261	396	1
2	9312	400	1
2	9414	404	1
2	9517	408	1
2	9620	412	1
2	9722	416	1
2	9773	420	1
2	9879	424	1
2	9984	428	1
2	10086	432	1
2	10191	436	1
2	10242	440	1
2	10342	444	1
2	10444	448	1
2	10549	452	1
2	10650	456	1
2	10701	460	1
2	10804	464	1
2	10909	468	1
2	11013	472	1
2	11116	476	1
2	11167	480	1
2	11267	484	1
2	11370	488	1
2	11475	492	1
2	11577	496	1
2	11628	500	1
2	11730	504	1
2	11835	508	1
2	11936	512	1
2	12038	516	1
2	12089	520	1
2	12196	524	1
2	12300	528	1
2	12401	532	1
2	12503	536	1
2	12554	540	1
2	12658	544	1
2	12759	548	1
2	12864	552	1
2	12965	556	1
2	13016	560	1
2	13116	564	1
2	13220	568	1
2	13323	572	1
2	13425	576	1
2	13476	580	1
2	13578	584	1
2	13684	588	1
2	13789	592	1
2	13891	596	1
2	13942	600	1
2	14046	604	1
2	14149	608	1
2	14251	612	1
2	14356	616	1
2	14407	620	1
2	14508	624	1
2	14610	628	1
2	14715	632	1
2	14818	636	1
2	14869	640	1
2	14969	644	1
2	15073	648	1
2	15174	652	1
2	15275	656	1
2	15326	660	1
2	15427	664	1
2	15529	668	1
2	15634	672	1
2	15736	676	1
2	15787	680	1
2	15891	684	1
2	15992	688	1
2	16093	692	1
2	16196	696	1
2	16247	700	1
2	16348	704	1
2	16451	708	1
2	16554	712	1
2	16658	716	1
2	16709	720	1
2	16809	724	1
2	16912	728	1
2	17014	732	1
2	17119	736	1
2	17170	740	1
2	17271	744	1
2	17375	748	1
2	17477	752	1
2	17583	756	1
2	17634	760	1
2	17735	764	1
2	17839	768	1
2	17942	772	1
2	18043	776	1
2	18094	780	1
2	18195	784	1
2	18298	788	1
2	18401	792	1
2	18505	796	1
2	18556	800	1
2	18657	804	1
2	18760	808	1
2	18865	812	1
2	18967	816	1
2	19018	820	1
2	19122	824	1
2	19225	828	1
2	19328	832	1
2	19429	836	1
2	19480	840	1
2	19582	844	1
2	19684	848	1
2	19788	852	1
2	19891	856	1
2	19942	860	1
2	20042	864	1
2	20143	868	1
2	20246	872	1
2	20349	876	1
2	20400	880	1
2	20502	884	1
2	20604	888	1
2	20707	892	1
2	20812	896	1
2	20863	900	1
2	20965	904	1
2	21066	908	1
2	21170	912	1
2	21272	916	1
2	21323	920	1
2	21426	924	1
2	21527	928	1
2	21629	932	1
2	21734	936	1
2	21785	940	1
2	21885	944	1
2	21987	948	1
2	22092	952	1
2	22194	956	1
2	22245	960	1
2	22348	964	1
2	22450	968	1
2	22555	972	1
2	22656	976	1
2	22707	980	1
2	22807	984	1
2	22909	988	1
2	23015	992	1
2	23118	996	1
2	23169	1000	1
2	23269	1004	1
2	23371	1008	1
2	23474	1012	1
2	23579	1016	1
2	23630	1020	1
2	23732	1024	1
2	23836	1028	1
2	23937	1032	1
2	24040	1036	1
2	24091	1040	1
2	24191	1044	1
2	24293	1048	1
2	24397	1052	1
2	24499	1056	1
2	24550	1060	1
2	24657	1064	1
2	24759	1068	1
2	24861	1072	1
2	24964	1076	1
2	25015	1080	1
2	25115	1084	1
2	25217	1088	1
2	25320	1092	1
2	25424	1096	1
2	25475	1100	1
2	25578	1104	1
2	25682	1108	1
2	25783	1112	1
2	25887	1116	1
2	25938	1120	1
2	26040	1124	1
2	26142	1128	1
2	26245	1132	1
2	26348	1136	1
2	26399	1140	1
2	26505	1144	1
2	26607	1148	1
2	26711	1152	1
2	26812	1156	1
2	26863	1160	1
2	26964	1164	1
2	27068	1168	1
2	27169	1172	1
2	27271	1176	1
2	27322	1180	1
2	27425	1184	1
2	27526	1188	1
2	27629	1192	1
2	27732	1196	1
2	27783	1200	1
2	27890	1204	1
2	27991	1208	1
2	28093	1212	1
2	28196	1216	1
2	28247	1220	1
2	28350	1224	1
2	28452	1228	1
2	28555	1232	1
2	28660	1236	1
2	28711	1240	1
2	28814	1244	1
2	28917	1248	1
2	29019	1252	1
2	29123	1256	1
2	29174	1260	1
2	29276	1264	1
2	29378	1268	1
2	29480	1272	1
2	29583	1276	1
2	29634	1280	1
2	29734	1284	1
2	29837	1288	1
2	29939	1292	1
2	30042	1296	1
2	30093	1300	1
2	30196	1304	1
2	30298	1308	1
2	30401	1312	1
2	30504	1316	1
2	30555	1320	1
2	30657	1324	1
2	30762	1328	1
2	30865	1332	1
2	30968	1336	1
2	31019	1340	1
2	31121	1344	1
2	31222	1348	1
2	31326	1352	1
2	31428	1356	1
2	31479	1360	1
2	31580	1364	1
2	31683	1368	1
2	31786	1372	1
2	31887	1376	1
2	31938	1380	1
2	32040	1384	1
2	32144	1388	1
2	32246	1392	1
2	32348	1396	1
2	32399	1400	1
2	32499	1404	1
2	32601	1408	1
2	32706	1412	1
2	32807	1416	1
2	32858	1420	1
2	32959	1424	1
2	33063	1428	1
2	33165	1432	1
2	33268	1436	1
2	33319	1440	1
2	33422	1444	1
2	33523	1448	1
2	33625	1452	1
2	33729	1456	1
2	33780	1460	1
2	33883	1464	1
2	33985	1468	1
2	34088	1472	1
2	34191	1476	1
2	34242	1480	1
2	34345	1484	1
2	34451	1488	1
2	34552	1492	1
2	34654	1496	1
2	34705	1500	1
2	34806	1504	1
2	34907	1508	1
2	35010	1512	1
2	35112	1516	1
2	35163	1520	1
2	35266	1524	1
2	35367	1528	1
2	35469	1532	1
2	35574	1536	1
2	35625	1540	1
2	35725	1544	1
2	35826	1548	1
2	35927	1552	1
2	36031	1556	1
2	36082	1560	1
2	36183	1564	1
2	36286	1568	1
2	36390	1572	1
2	36491	1576	1
2	36542	1580	1
2	36643	1584	1
2	36747	1588	1
2	36849	1592	1
2	36953	1596	1
2	37004	1600	1
2	37107	1604	1
2	37208	1608	1
2	37310	1612	1
2	37414	1616	1
2	37465	1620	1
2	37566	1624	1
2	37668	1628	1
2	37771	1632	1
2	37875	1636	1
2	37926	1640	1
2	38026	1644	1
2	38127	1648	1
2	38230	1652	1
2	38331	1656	1
2	38382	1660	1
2	38483	1664	1
2	38586	1668	1
2	38690	1672	1
2	38793	1676	1
2	38844	1680	1
2	38944	1684	1
2	39045	1688	1
2	39149	1692	1
2	39250	1696	1
2	39301	1700	1
2	39402	1704	1
2	39505	1708	1
2	39609	1712	1
2	39710	1716	1
2	39761	1720	1
2	39861	1724	1
2	39964	1728	1
2	40065	1732	1
2	40167	1736	1
2	40218	1740	1
2	40322	1744	1
2	40424	1748	1
2	40528	1752	1
2	40631	1756	1
2	40682	1760	1
2	40782	1764	1
2	40884	1768	1
2	40986	1772	1
2	41092	1776	1
2	41143	1780	1
2	41243	1784	1
2	41344	1788	1
2	41445	1792	1
2	41547	1796	1
2	41598	1800	1
2	41701	1804	1
2	41803	1808	1
2	41906	1812	1
2	42010	1816	1
2	42061	1820	1
2	42161	1824	1
2	42263	1828	1
2	42367	1832	1
2	42469	1836	1
2	42520	1840	1
2	42623	1844	1
2	42725	1848	1
2	42828	1852	1
2	42933	1856	1
2	42984	1860	1
2	43085	1864	1
2	43188	1868	1
2	43292	1872	1
2	43393	1876	1
2	43444	1880	1
2	43546	1884	1
2	43648	1888	1
2	43753	1892	1
2	43855	1896	1
2	43906	1900	1
2	44007	1904	1
2	44111	1908	1
2	44213	1912	1
2	44318	1916	1
2	44369	1920	1
2	44469	1924	1
2	44570	1928	1
2	44671	1932	1
2	44772	1936	1
2	44823	1940	1
2	44925	1944	1
2	45026	1948	1
2	45128	1952	1
2	45232	1956	1
2	45283	1960	1
2	45383	1964	1
2	45484	1968	1
2	45586	1972	1
2	45689	1976	1
2	45740	1980	1
2	45844	1984	1
2	45946	1988	1
2	46049	1992	1
2	46153	1996	1
2	46204	2000	1
2	46305	2004	1
2	46407	2008	1
2	46511	2012	1
2	46614	2016	1
2	46665	2020	1
2	46765	2024	1
2	46868	2028	1
2	46973	2032	1
2	47074	2036	1
2	47125	2040	1
2	47227	2044	1
2	47329	2048	1
2	47433	2052	1
2	47534	2056	1
2	47585	2060	1
2	47686	2064	1
2	47790	2068	1
2	47891	2072	1
2	47992	2076	1
2	48043	2080	1
2	48146	2084	1
2	48249	2088	1
2	48351	2092	1
2	48456	2096	1
2	48507	2100	1
2	48608	2104	1
2	48714	2108	1
2	48816	2112	1
2	48919	2116	1
2	48970	2120	1
2	49073	2124	1
2	49176	2128	1
2	49278	2132	1
2	49382	2136	1
2	49433	2140	1
2	49535	2144	1
2	49636	2148	1
2	49739	2152	1
2	49840	2156	1
2	49891	2160	1
2	49992	2164	1
2	50096	2168	1
2	50199	2172	1
2	50301	2176	1
2	50352	2180	1
2	50454	2184	1
2	50558	2188	1
2	50661	2192	1
2	50764	2196	1
2	50815	2200	1
2	50916	2204	1
2	51019	2208	1
2	51125	2212	1
2	51228	2216	1
2	51279	2220	1
2	51380	2224	1
2	51484	2228	1
2	51586	2232	1
2	51689	2236	1
2	51740	2240	1
2	51844	2244	1
2	51945	2248	1
2	52047	2252	1
2	52151	2256	1
2	52202	2260	1
2	52303	2264	1
2	52407	2268	1
2	52509	2272	1
2	52611	2276	1
2	52662	2280	1
2	52763	2284	1
2	52867	2288	1
2	52972	2292	1
2	53073	2296	1
2	53124	2300	1
2	53225	2304	1
2	53330	2308	1
2	53433	2312	1
2	53534	2316	1
2	53585	2320	1
2	53685	2324	1
2	53787	2328	1
2	53890	2332	1
2	53995	2336	1
2	54046	2340	1
2	54147	2344	1
2	54251	2348	1
2	54355	2352	1
2	54456	2356	1
2	54507	2360	1
2	54609	2364	1
2	54711	2368	1
2	54817	2372	1
2	54918	2376	1
2	54969	2380	1
2	55069	2384	1
2	55170	2388	1
2	55273	2392	1
2	55375	2396	1
2	55426	2400	1
2	55529	2404	1
2	55631	2408	1
2	55733	2412	1
2	55834	2416	1
2	55885	2420	1
2	55987	2424	1
2	56089	2428	1
2	56192	2432	1
2	56296	2436	1
2	56347	2440	1
2	56449	2444	1
2	56550	2448	1
2	56652	2452	1
2	56758	2456	1
2	56809	2460	1
2	56910	2464	1
2	57014	2468	1
2	57115	2472	1
2	57216	2476	1
2	57267	2480	1
2	57368	2484	1
2	57473	2488	1
2	57574	2492	1
2	57676	2496	1
2	57727	2500	1
2	57828	2504	1
2	57930	2508	1
2	58033	2512	1
2	58138	2516	1
2	58189	2520	1
2	58289	2524	1
2	58391	2528	1
2	58494	2532	1
2	58599	2536	1
2	58650	2540	1
2	58751	2544	1
2	58856	2548	1
2	58958	2552	1
2	59061	2556	1
2	59112	2560	1
2	59217	2564	1
2	59318	2568	1
2	59421	2572	1
2	59523	2576	1
2	59574	2580	1
2	59679	2584	1
2	59780	2588	1
2	59882	2592	1
2	59987	2596	1
2	60038	2600	1
2	60138	2604	1
2	60239	2608	1
2	60340	2612	1
2	60442	2616	1
2	60493	2620	1
2	60595	2624	1
2	60698	2628	1
2	60802	2632	1
2	60903	2636	1
2	60954	2640	1
2	61057	2644	1
2	61160	2648	1
2	61261	2652	1
2	61362	2656	1
2	61413	2660	1
2	61516	2664	1
2	61619	2668	1
2	61720	2672	1
2	61821	2676	1
2	61872	2680	1
2	61974	2684	1
2	62075	2688	1
2	62177	2692	1
2	62279	2696	1
2	62330	2700	1
2	62432	2704	1
2	62536	2708	1
2	62637	2712	1
2	62738	2716	1
2	62789	2720	1
2	62890	2724	1
2	62993	2728	1
2	63098	2732	1
2	63199	2736	1
2	63250	2740	1
2	63350	2744	1
2	63452	2748	1
2	63554	2752	1
2	63658	2756	1
2	63709	2760	1
2	63811	2764	1
2	63912	2768	1
2	64014	2772	1
2	64118	2776	1
2	64169	2780	1
2	64270	2784	1
2	64374	2788	1
2	64476	2792	1
2	64579	2796	1
2	64630	2800	1
2	64732	2804	1
2	64835	2808	1
2	64940	2812	1
2	65042	2816	1
2	65093	2820	1
2	65195	2824	1
2	65297	2828	1
2	65401	2832	1
2	65502	2836	1
2	65553	2840	1
2	65653	2844	1
2	65754	2848	1
2	65855	2852	1
2	65957	2856	1
2	66008	2860	1
2	66112	2864	1
2	66214	2868	1
2	66318	2872	1
2	66420	2876	1
2	66471	2880	1
2	66572	2884	1
2	66676	2888	1
2	66777	2892	1
2	66878	2896	1
2	66929	2900	1
2	67029	2904	1
2	67131	2908	1
2	67234	2912	1
2	67338	2916	1
2	67389	2920	1
2	67489	2924	1
2	67590	2928	1
2	67692	2932	1
2	67795	2936	1
2	67846	2940	1
2	67949	2944	1
2	68051	2948	1
2	68154	2952	1
2	68259	2956	1
2	68310	2960	1
2	68411	2964	1
2	68515	2968	1
2	68616	2972	1
2	68717	2976	1
2	68768	2980	1
2	68871	2984	1
2	68974	2988	1
2	69075	2992	1
2	69176	2996	1
2	69227	3000	1
2	69330	3004	1
2	69431	3008	1
2	69532	3012	1
2	69635	3016	1
2	69686	3020	1
2	69786	3024	1
2	69887	3028	1
2	69988	3032	1
2	70089	3036	1
2	70140	3040	1
2	70241	3044	1
2	70344	3048	1
2	70447	3052	1
2	70552	3056	1
2	70603	3060	1
2	70703	3064	1
2	70804	3068	1
2	70905	3072	1
2	71007	3076	1
2	71058	3080	1
2	71160	3084	1
2	71264	3088	1
2	71367	3092	1
2	71468	3096	1
2	71519	3100	1
2	71620	3104	1
2	71723	3108	1
2	71827	3112	1
2	71928	3116	1
2	71979	3120	1
2	72080	3124	1
2	72185	3128	1
2	72286	3132	1
2	72388	3136	1
2	72439	3140	1
2	72541	3144	1
2	72644	3148	1
2	72746	3152	1
2	72848	3156	1
2	72899	3160	1
2	73003	3164	1
2	73104	3168	1
2	73205	3172	1
2	73307	3176	1
2	73358	3180	1
2	73461	3184	1
2	73563	3188	1
2	73667	3192	1
2	73768	3196	1
2	73819	3200	1
2	73920	3204	1
2	74024	3208	1
2	74127	3212	1
2	74229	3216	1
2	74280	3220	1
2	74383	3224	1
2	74486	3228	1
2	74587	3232	1
2	74689	3236	1
2	74740	3240	1
2	74842	3244	1
2	74948	3248	1
2	75049	3252	1
2	75152	3256	1
2	75203	3260	1
2	75304	3264	1
2	75408	3268	1
2	75509	3272	1
2	75612	3276	1
2	75663	3280	1
2	75765	3284	1
2	75866	3288	1
2	75968	3292	1
2	76073	3296	1
2	76124	3300	1
2	76225	3304	1
2	76329	3308	1
2	76430	3312	1
2	76532	3316	1
2	76583	3320	1
2	76686	3324	1
2	76787	3328	1
2	76888	3332	1
2	76991	3336	1
2	77042	3340	1
2	77143	3344	1
2	77247	3348	1
2	77352	3352	1
2	77454	3356	1
2	77505	3360	1
2	77607	3364	1
2	77710	3368	1
2	77813	3372	1
2	77919	3376	1
2	77970	3380	1
2	78071	3384	1
2	78175	3388	1
2	78276	3392	1
2	78377	3396	1
2	78428	3400	1
2	78529	3404	1
2	78633	3408	1
2	78736	3412	1
2	78837	3416	1
2	78888	3420	1
2	78990	3424	1
2	79092	3428	1
2	79194	3432	1
2	79299	3436	1
2	79350	3440	1
2	79450	3444	1
2	79553	3448	1
2	79654	3452	1
2	79756	3456	1
2	79807	3460	1
2	79909	3464	1
2	80013	3468	1
2	80115	3472	1
2	80218	3476	1
2	80269	3480	1
2	80371	3484	1
2	80475	3488	1
2	80577	3492	1
2	80681	3496	1
2	80732	3500	1
2	80832	3504	1
2	80935	3508	1
2	81037	3512	1
2	81142	3516	1
2	81193	3520	1
2	81293	3524	1
2	81394	3528	1
2	81496	3532	1
2	81600	3536	1
2	81651	3540	1
2	81752	3544	1
2	81856	3548	1
2	81958	3552	1
2	82062	3556	1
2	82113	3560	1
2	82215	3564	1
2	82317	3568	1
2	82419	3572	1
2	82523	3576	1
2	82574	3580	1
2	82674	3584	1
2	82775	3588	1
2	82878	3592	1
2	82980	3596	1
2	83031	3600	1
3	4	4	1
3	134	8	1
3	251	12	1
3	353	16	1
3	404	20	1
3	515	24	1
3	626	28	1
3	738	32	1
3	849	36	1
3	900	40	1
3	1013	44	1
3	1119	48	1
3	1225	52	1
3	1337	56	1
3	1388	60	1
3	1493	64	1
3	1601	68	1
3	1710	72	1
3	1816	76	1
3	1867	80	1
3	1973	84	1
3	2080	88	1
3	2187	92	1
3	2290	96	1
3	2341	100	1
3	2443	104	1
3	2545	108	1
3	2651	112	1
3	2755	116	1
3	2806	120	1
3	2910	124	1
3	3014	128	1
3	3121	132	1
3	3226	136	1
3	3277	140	1
3	3381	144	1
3	3484	148	1
3	3588	152	1
3	3691	156	1
3	3742	160	1
3	3848	164	1
3	3950	168	1
3	4057	172	1
3	4160	176	1
3	4211	180	1
3	4314	184	1
3	4417	188	1
3	4520	192	1
3	4621	196	1
3	4672	200	1
3	4775	204	1
3	4878	208	1
3	4983	212	1
3	5087	216	1
3	5138	220	1
3	5241	224	1
3	5343	228	1
3	5448	232	1
3	5550	236	1
3	5601	240	1
3	5703	244	1
3	5808	248	1
3	5909	252	1
3	6011	256	1
3	6062	260	1
3	6164	264	1
3	6270	268	1
3	6373	272	1
3	6475	276	1
3	6526	280	1
3	6629	284	1
3	6731	288	1
3	6841	292	1
3	6945	296	1
3	6996	300	1
3	7096	304	1
3	7198	308	1
3	7302	312	1
3	7405	316	1
3	7456	320	1
3	7557	324	1
3	7662	328	1
3	7766	332	1
3	7872	336	1
3	7923	340	1
3	8025	344	1
3	8127	348	1
3	8231	352	1
3	8335	356	1
3	8386	360	1
3	8486	364	1
3	8589	368	1
3	8691	372	1
3	8797	376	1
3	8848	380	1
3	8950	384	1
3	9052	388	1
3	9158	392	1
3	9262	396	1
3	9313	400	1
3	9415	404	1
3	9518	408	1
3	9621	412	1
3	9723	416	1
3	9774	420	1
3	9880	424	1
3	9985	428	1
3	10087	432	1
3	10192	436	1
3	10243	440	1
3	10343	444	1
3	10445	448	1
3	10550	452	1
3	10651	456	1
3	10702	460	1
3	10805	464	1
3	10910	468	1
3	11014	472	1
3	11117	476	1
3	11168	480	1
3	11268	484	1
3	11371	488	1
3	11476	492	1
3	11578	496	1
3	11629	500	1
3	11731	504	1
3	11836	508	1
3	11937	512	1
3	12039	516	1
3	12090	520	1
3	12197	524	1
3	12301	528	1
3	12402	532	1
3	12504	536	1
3	12555	540	1
3	12659	544	1
3	12760	548	1
3	12865	552	1
3	12966	556	1
3	13017	560	1
3	13117	564	1
3	13221	568	1
3	13324	572	1
3	13426	576	1
3	13477	580	1
3	13579	584	1
3	13685	588	1
3	13790	592	1
3	13892	596	1
3	13943	600	1
3	14047	604	1
3	14150	608	1
3	14252	612	1
3	14357	616	1
3	14408	620	1
3	14509	624	1
3	14611	628	1
3	14716	632	1
3	14819	636	1
3	14870	640	1
3	14970	644	1
3	15074	648	1
3	15175	652	1
3	15276	656	1
3	15327	660	1
3	15428	664	1
3	15530	668	1
3	15635	672	1
3	15737	676	1
3	15788	680	1
3	15892	684	1
3	15993	688	1
3	16094	692	1
3	16197	696	1
3	16248	700	1
3	16349	704	1
3	16452	708	1
3	16555	712	1
3	16659	716	1
3	16710	720	1
3	16810	724	1
3	16913	728	1
3	17015	732	1
3	17120	736	1
3	17171	740	1
3	17272	744	1
3	17376	748	1
3	17478	752	1
3	17584	756	1
3	17635	760	1
3	17736	764	1
3	17840	768	1
3	17943	772	1
3	18044	776	1
3	18095	780	1
3	18196	784	1
3	18299	788	1
3	18402	792	1
3	18506	796	1
3	18557	800	1
3	18658	804	1
3	18761	808	1
3	18866	812	1
3	18968	816	1
3	19019	820	1
3	19123	824	1
3	19226	828	1
3	19329	832	1
3	19430	836	1
3	19481	840	1
3	19583	844	1
3	19685	848	1
3	19789	852	1
3	19892	856	1
3	19943	860	1
3	20043	864	1
3	20144	868	1
3	20247	872	1
3	20350	876	1
3	20401	880	1
3	20503	884	1
3	20605	888	1
3	20708	892	1
3	20813	896	1
3	20864	900	1
3	20966	904	1
3	21067	908	1
3	21171	912	1
3	21273	916	1
3	21324	920	1
3	21427	924	1
3	21528	928	1
3	21630	932	1
3	21735	936	1
3	21786	940	1
3	21886	944	1
3	21988	948	1
3	22093	952	1
3	22195	956	1
3	22246	960	1
3	22349	964	1
3	22451	968	1
3	22556	972	1
3	22657	976	1
3	22708	980	1
3	22808	984	1
3	22910	988	1
3	23016	992	1
3	23119	996	1
3	23170	1000	1
3	23270	1004	1
3	23372	1008	1
3	23475	1012	1
3	23580	1016	1
3	23631	1020	1
3	23733	1024	1
3	23837	1028	1
3	23938	1032	1
3	24041	1036	1
3	24092	1040	1
3	24192	1044	1
3	24294	1048	1
3	24398	1052	1
3	24500	1056	1
3	24551	1060	1
3	24658	1064	1
3	24760	1068	1
3	24862	1072	1
3	24965	1076	1
3	25016	1080	1
3	25116	1084	1
3	25218	1088	1
3	25321	1092	1
3	25425	1096	1
3	25476	1100	1
3	25579	1104	1
3	25683	1108	1
3	25784	1112	1
3	25888	1116	1
3	25939	1120	1
3	26041	1124	1
3	26143	1128	1
3	26246	1132	1
3	26349	1136	1
3	26400	1140	1
3	26506	1144	1
3	26608	1148	1
3	26712	1152	1
3	26813	1156	1
3	26864	1160	1
3	26965	1164	1
3	27069	1168	1
3	27170	1172	1
3	27272	1176	1
3	27323	1180	1
3	27426	1184	1
3	27527	1188	1
3	27630	1192	1
3	27733	1196	1
3	27784	1200	1
3	27891	1204	1
3	27992	1208	1
3	28094	1212	1
3	28197	1216	1
3	28248	1220	1
3	28351	1224	1
3	28453	1228	1
3	28556	1232	1
3	28661	1236	1
3	28712	1240	1
3	28815	1244	1
3	28918	1248	1
3	29020	1252	1
3	29124	1256	1
3	29175	1260	1
3	29277	1264	1
3	29379	1268	1
3	29481	1272	1
3	29584	1276	1
3	29635	1280	1
3	29735	1284	1
3	29838	1288	1
3	29940	1292	1
3	30043	1296	1
3	30094	1300	1
3	30197	1304	1
3	30299	1308	1
3	30402	1312	1
3	30505	1316	1
3	30556	1320	1
3	30658	1324	1
3	30763	1328	1
3	30866	1332	1
3	30969	1336	1
3	31020	1340	1
3	31122	1344	1
3	31223	1348	1
3	31327	1352	1
3	31429	1356	1
3	31480	1360	1
3	31581	1364	1
3	31684	1368	1
3	31787	1372	1
3	31888	1376	1
3	31939	1380	1
3	32041	1384	1
3	32145	1388	1
3	32247	1392	1
3	32349	1396	1
3	32400	1400	1
3	32500	1404	1
3	32602	1408	1
3	32707	1412	1
3	32808	1416	1
3	32859	1420	1
3	32960	1424	1
3	33064	1428	1
3	33166	1432	1
3	33269	1436	1
3	33320	1440	1
3	33423	1444	1
3	33524	1448	1
3	33626	1452	1
3	33730	1456	1
3	33781	1460	1
3	33884	1464	1
3	33986	1468	1
3	34089	1472	1
3	34192	1476	1
3	34243	1480	1
3	34346	1484	1
3	34452	1488	1
3	34553	1492	1
3	34655	1496	1
3	34706	1500	1
3	34807	1504	1
3	34908	1508	1
3	35011	1512	1
3	35113	1516	1
3	35164	1520	1
3	35267	1524	1
3	35368	1528	1
3	35470	1532	1
3	35575	1536	1
3	35626	1540	1
3	35726	1544	1
3	35827	1548	1
3	35928	1552	1
3	36032	1556	1
3	36083	1560	1
3	36184	1564	1
3	36287	1568	1
3	36391	1572	1
3	36492	1576	1
3	36543	1580	1
3	36644	1584	1
3	36748	1588	1
3	36850	1592	1
3	36954	1596	1
3	37005	1600	1
3	37108	1604	1
3	37209	1608	1
3	37311	1612	1
3	37415	1616	1
3	37466	1620	1
3	37567	1624	1
3	37669	1628	1
3	37772	1632	1
3	37876	1636	1
3	37927	1640	1
3	38027	1644	1
3	38128	1648	1
3	38231	1652	1
3	38332	1656	1
3	38383	1660	1
3	38484	1664	1
3	38587	1668	1
3	38691	1672	1
3	38794	1676	1
3	38845	1680	1
3	38945	1684	1
3	39046	1688	1
3	39150	1692	1
3	39251	1696	1
3	39302	1700	1
3	39403	1704	1
3	39506	1708	1
3	39610	1712	1
3	39711	1716	1
3	39762	1720	1
3	39862	1724	1
3	39965	1728	1
3	40066	1732	1
3	40168	1736	1
3	40219	1740	1
3	40323	1744	1
3	40425	1748	1
3	40529	1752	1
3	40632	1756	1
3	40683	1760	1
3	40783	1764	1
3	40885	1768	1
3	40987	1772	1
3	41093	1776	1
3	41144	1780	1
3	41244	1784	1
3	41345	1788	1
3	41446	1792	1
3	41548	1796	1
3	41599	1800	1
3	41702	1804	1
3	41804	1808	1
3	41907	1812	1
3	42011	1816	1
3	42062	1820	1
3	42162	1824	1
3	42264	1828	1
3	42368	1832	1
3	42470	1836	1
3	42521	1840	1
3	42624	1844	1
3	42726	1848	1
3	42829	1852	1
3	42934	1856	1
3	42985	1860	1
3	43086	1864	1
3	43189	1868	1
3	43293	1872	1
3	43394	1876	1
3	43445	1880	1
3	43547	1884	1
3	43649	1888	1
3	43754	1892	1
3	43856	1896	1
3	43907	1900	1
3	44008	1904	1
3	44112	1908	1
3	44214	1912	1
3	44319	1916	1
3	44370	1920	1
3	44470	1924	1
3	44571	1928	1
3	44672	1932	1
3	44773	1936	1
3	44824	1940	1
3	44926	1944	1
3	45027	1948	1
3	45129	1952	1
3	45233	1956	1
3	45284	1960	1
3	45384	1964	1
3	45485	1968	1
3	45587	1972	1
3	45690	1976	1
3	45741	1980	1
3	45845	1984	1
3	45947	1988	1
3	46050	1992	1
3	46154	1996	1
3	46205	2000	1
3	46306	2004	1
3	46408	2008	1
3	46512	2012	1
3	46615	2016	1
3	46666	2020	1
3	46766	2024	1
3	46869	2028	1
3	46974	2032	1
3	47075	2036	1
3	47126	2040	1
3	47228	2044	1
3	47330	2048	1
3	47434	2052	1
3	47535	2056	1
3	47586	2060	1
3	47687	2064	1
3	47791	2068	1
3	47892	2072	1
3	47993	2076	1
3	48044	2080	1
3	48147	2084	1
3	48250	2088	1
3	48352	2092	1
3	48457	2096	1
3	48508	2100	1
3	48609	2104	1
3	48715	2108	1
3	48817	2112	1
3	48920	2116	1
3	48971	2120	1
3	49074	2124	1
3	49177	2128	1
3	49279	2132	1
3	49383	2136	1
3	49434	2140	1
3	49536	2144	1
3	49637	2148	1
3	49740	2152	1
3	49841	2156	1
3	49892	2160	1
3	49993	2164	1
3	50097	2168	1
3	50200	2172	1
3	50302	2176	1
3	50353	2180	1
3	50455	2184	1
3	50559	2188	1
3	50662	2192	1
3	50765	2196	1
3	50816	2200	1
3	50917	2204	1
3	51020	2208	1
3	51126	2212	1
3	51229	2216	1
3	51280	2220	1
3	51381	2224	1
3	51485	2228	1
3	51587	2232	1
3	51690	2236	1
3	51741	2240	1
3	51845	2244	1
3	51946	2248	1
3	52048	2252	1
3	52152	2256	1
3	52203	2260	1
3	52304	2264	1
3	52408	2268	1
3	52510	2272	1
3	52612	2276	1
3	52663	2280	1
3	52764	2284	1
3	52868	2288	1
3	52973	2292	1
3	53074	2296	1
3	53125	2300	1
3	53226	2304	1
3	53331	2308	1
3	53434	2312	1
3	53535	2316	1
3	53586	2320	1
3	53686	2324	1
3	53788	2328	1
3	53891	2332	1
3	53996	2336	1
3	54047	2340	1
3	54148	2344	1
3	54252	2348	1
3	54356	2352	1
3	54457	2356	1
3	54508	2360	1
3	54610	2364	1
3	54712	2368	1
3	54818	2372	1
3	54919	2376	1
3	54970	2380	1
3	55070	2384	1
3	55171	2388	1
3	55274	2392	1
3	55376	2396	1
3	55427	2400	1
3	55530	2404	1
3	55632	2408	1
3	55734	2412	1
3	55835	2416	1
3	55886	2420	1
3	55988	2424	1
3	56090	2428	1
3	56193	2432	1
3	56297	2436	1
3	56348	2440	1
3	56450	2444	1
3	56551	2448	1
3	56653	2452	1
3	56759	2456	1
3	56810	2460	1
3	56911	2464	1
3	57015	2468	1
3	57116	2472	1
3	57217	2476	1
3	57268	2480	1
3	57369	2484	1
3	57474	2488	1
3	57575	2492	1
3	57677	2496	1
3	57728	2500	1
3	57829	2504	1
3	57931	2508	1
3	58034	2512	1
3	58139	2516	1
3	58190	2520	1
3	58290	2524	1
3	58392	2528	1
3	58495	2532	1
3	58600	2536	1
3	58651	2540	1
3	58752	2544	1
3	58857	2548	1
3	58959	2552	1
3	59062	2556	1
3	59113	2560	1
3	59218	2564	1
3	59319	2568	1
3	59422	2572	1
3	59524	2576	1
3	59575	2580	1
3	59680	2584	1
3	59781	2588	1
3	59883	2592	1
3	59988	2596	1
3	60039	2600	1
3	60139	2604	1
3	60240	2608	1
3	60341	2612	1
3	60443	2616	1
3	60494	2620	1
3	60596	2624	1
3	60699	2628	1
3	60803	2632	1
3	60904	2636	1
3	60955	2640	1
3	61058	2644	1
3	61161	2648	1
3	61262	2652	1
3	61363	2656	1
3	61414	2660	1
3	61517	2664	1
3	61620	2668	1
3	61721	2672	1
3	61822	2676	1
3	61873	2680	1
3	61975	2684	1
3	62076	2688	1
3	62178	2692	1
3	62280	2696	1
3	62331	2700	1
3	62433	2704	1
3	62537	2708	1
3	62638	2712	1
3	62739	2716	1
3	62790	2720	1
3	62891	2724	1
3	62994	2728	1
3	63099	2732	1
3	63200	2736	1
3	63251	2740	1
3	63351	2744	1
3	63453	2748	1
3	63555	2752	1
3	63659	2756	1
3	63710	2760	1
3	63812	2764	1
3	63913	2768	1
3	64015	2772	1
3	64119	2776	1
3	64170	2780	1
3	64271	2784	1
3	64375	2788	1
3	64477	2792	1
3	64580	2796	1
3	64631	2800	1
3	64733	2804	1
3	64836	2808	1
3	64941	2812	1
3	65043	2816	1
3	65094	2820	1
3	65196	2824	1
3	65298	2828	1
3	65402	2832	1
3	65503	2836	1
3	65554	2840	1
3	65654	2844	1
3	65755	2848	1
3	65856	2852	1
3	65958	2856	1
3	66009	2860	1
3	66113	2864	1
3	66215	2868	1
3	66319	2872	1
3	66421	2876	1
3	66472	2880	1
3	66573	2884	1
3	66677	2888	1
3	66778	2892	1
3	66879	2896	1
3	66930	2900	1
3	67030	2904	1
3	67132	2908	1
3	67235	2912	1
3	67339	2916	1
3	67390	2920	1
3	67490	2924	1
3	67591	2928	1
3	67693	2932	1
3	67796	2936	1
3	67847	2940	1
3	67950	2944	1
3	68052	2948	1
3	68155	2952	1
3	68260	2956	1
3	68311	2960	1
3	68412	2964	1
3	68516	2968	1
3	68617	2972	1
3	68718	2976	1
3	68769	2980	1
3	68872	2984	1
3	68975	2988	1
3	69076	2992	1
3	69177	2996	1
3	69228	3000	1
3	69331	3004	1
3	69432	3008	1
3	69533	3012	1
3	69636	3016	1
3	69687	3020	1
3	69787	3024	1
3	69888	3028	1
3	69989	3032	1
3	70090	3036	1
3	70141	3040	1
3	70242	3044	1
3	70345	3048	1
3	70448	3052	1
3	70553	3056	1
3	70604	3060	1
3	70704	3064	1
3	70805	3068	1
3	70906	3072	1
3	71008	3076	1
3	71059	3080	1
3	71161	3084	1
3	71265	3088	1
3	71368	3092	1
3	71469	3096	1
3	71520	3100	1
3	71621	3104	1
3	71724	3108	1
3	71828	3112	1
3	71929	3116	1
3	71980	3120	1
3	72081	3124	1
3	72186	3128	1
3	72287	3132	1
3	72389	3136	1
3	72440	3140	1
3	72542	3144	1
3	72645	3148	1
3	72747	3152	1
3	72849	3156	1
3	72900	3160	1
3	73004	3164	1
3	73105	3168	1
3	73206	3172	1
3	73308	3176	1
3	73359	3180	1
3	73462	3184	1
3	73564	3188	1
3	73668	3192	1
3	73769	3196	1
3	73820	3200	1
3	73921	3204	1
3	74025	3208	1
3	74128	3212	1
3	74230	3216	1
3	74281	3220	1
3	74384	3224	1
3	74487	3228	1
3	74588	3232	1
3	74690	3236	1
3	74741	3240	1
3	74843	3244	1
3	74949	3248	1
3	75050	3252	1
3	75153	3256	1
3	75204	3260	1
3	75305	3264	1
3	75409	3268	1
3	75510	3272	1
3	75613	3276	1
3	75664	3280	1
3	75766	3284	1
3	75867	3288	1
3	75969	3292	1
3	76074	3296	1
3	76125	3300	1
3	76226	3304	1
3	76330	3308	1
3	76431	3312	1
3	76533	3316	1
3	76584	3320	1
3	76687	3324	1
3	76788	3328	1
3	76889	3332	1
3	76992	3336	1
3	77043	3340	1
3	77144	3344	1
3	77248	3348	1
3	77353	3352	1
3	77455	3356	1
3	77506	3360	1
3	77608	3364	1
3	77711	3368	1
3	77814	3372	1
3	77920	3376	1
3	77971	3380	1
3	78072	3384	1
3	78176	3388	1
3	78277	3392	1
3	78378	3396	1
3	78429	3400	1
3	78530	3404	1
3	78634	3408	1
3	78737	3412	1
3	78838	3416	1
3	78889	3420	1
3	78991	3424	1
3	79093	3428	1
3	79195	3432	1
3	79300	3436	1
3	79351	3440	1
3	79451	3444	1
3	79554	3448	1
3	79655	3452	1
3	79757	3456	1
3	79808	3460	1
3	79910	3464	1
3	80014	3468	1
3	80116	3472	1
3	80219	3476	1
3	80270	3480	1
3	80372	3484	1
3	80476	3488	1
3	80578	3492	1
3	80682	3496	1
3	80733	3500	1
3	80833	3504	1
3	80936	3508	1
3	81038	3512	1
3	81143	3516	1
3	81194	3520	1
3	81294	3524	1
3	81395	3528	1
3	81497	3532	1
3	81601	3536	1
3	81652	3540	1
3	81753	3544	1
3	81857	3548	1
3	81959	3552	1
3	82063	3556	1
3	82114	3560	1
3	82216	3564	1
3	82318	3568	1
3	82420	3572	1
3	82524	3576	1
3	82575	3580	1
3	82675	3584	1
3	82776	3588	1
3	82879	3592	1
3	82981	3596	1
3	83032	3600	1
4	5	4	1
4	135	8	1
4	252	12	1
4	354	16	1
4	405	20	1
4	516	24	1
4	627	28	1
4	739	32	1
4	850	36	1
4	901	40	1
4	1014	44	1
4	1120	48	1
4	1226	52	1
4	1338	56	1
4	1389	60	1
4	1494	64	1
4	1602	68	1
4	1711	72	1
4	1817	76	1
4	1868	80	1
4	1974	84	1
4	2081	88	1
4	2188	92	1
4	2291	96	1
4	2342	100	1
4	2444	104	1
4	2546	108	1
4	2652	112	1
4	2756	116	1
4	2807	120	1
4	2911	124	1
4	3015	128	1
4	3122	132	1
4	3227	136	1
4	3278	140	1
4	3382	144	1
4	3485	148	1
4	3589	152	1
4	3692	156	1
4	3743	160	1
4	3849	164	1
4	3951	168	1
4	4058	172	1
4	4161	176	1
4	4212	180	1
4	4315	184	1
4	4418	188	1
4	4521	192	1
4	4622	196	1
4	4673	200	1
4	4776	204	1
4	4879	208	1
4	4984	212	1
4	5088	216	1
4	5139	220	1
4	5242	224	1
4	5344	228	1
4	5449	232	1
4	5551	236	1
4	5602	240	1
4	5704	244	1
4	5809	248	1
4	5910	252	1
4	6012	256	1
4	6063	260	1
4	6165	264	1
4	6271	268	1
4	6374	272	1
4	6476	276	1
4	6527	280	1
4	6630	284	1
4	6732	288	1
4	6842	292	1
4	6946	296	1
4	6997	300	1
4	7097	304	1
4	7199	308	1
4	7303	312	1
4	7406	316	1
4	7457	320	1
4	7558	324	1
4	7663	328	1
4	7767	332	1
4	7873	336	1
4	7924	340	1
4	8026	344	1
4	8128	348	1
4	8232	352	1
4	8336	356	1
4	8387	360	1
4	8487	364	1
4	8590	368	1
4	8692	372	1
4	8798	376	1
4	8849	380	1
4	8951	384	1
4	9053	388	1
4	9159	392	1
4	9263	396	1
4	9314	400	1
4	9416	404	1
4	9519	408	1
4	9622	412	1
4	9724	416	1
4	9775	420	1
4	9881	424	1
4	9986	428	1
4	10088	432	1
4	10193	436	1
4	10244	440	1
4	10344	444	1
4	10446	448	1
4	10551	452	1
4	10652	456	1
4	10703	460	1
4	10806	464	1
4	10911	468	1
4	11015	472	1
4	11118	476	1
4	11169	480	1
4	11269	484	1
4	11372	488	1
4	11477	492	1
4	11579	496	1
4	11630	500	1
4	11732	504	1
4	11837	508	1
4	11938	512	1
4	12040	516	1
4	12091	520	1
4	12198	524	1
4	12302	528	1
4	12403	532	1
4	12505	536	1
4	12556	540	1
4	12660	544	1
4	12761	548	1
4	12866	552	1
4	12967	556	1
4	13018	560	1
4	13118	564	1
4	13222	568	1
4	13325	572	1
4	13427	576	1
4	13478	580	1
4	13580	584	1
4	13686	588	1
4	13791	592	1
4	13893	596	1
4	13944	600	1
4	14048	604	1
4	14151	608	1
4	14253	612	1
4	14358	616	1
4	14409	620	1
4	14510	624	1
4	14612	628	1
4	14717	632	1
4	14820	636	1
4	14871	640	1
4	14971	644	1
4	15075	648	1
4	15176	652	1
4	15277	656	1
4	15328	660	1
4	15429	664	1
4	15531	668	1
4	15636	672	1
4	15738	676	1
4	15789	680	1
4	15893	684	1
4	15994	688	1
4	16095	692	1
4	16198	696	1
4	16249	700	1
4	16350	704	1
4	16453	708	1
4	16556	712	1
4	16660	716	1
4	16711	720	1
4	16811	724	1
4	16914	728	1
4	17016	732	1
4	17121	736	1
4	17172	740	1
4	17273	744	1
4	17377	748	1
4	17479	752	1
4	17585	756	1
4	17636	760	1
4	17737	764	1
4	17841	768	1
4	17944	772	1
4	18045	776	1
4	18096	780	1
4	18197	784	1
4	18300	788	1
4	18403	792	1
4	18507	796	1
4	18558	800	1
4	18659	804	1
4	18762	808	1
4	18867	812	1
4	18969	816	1
4	19020	820	1
4	19124	824	1
4	19227	828	1
4	19330	832	1
4	19431	836	1
4	19482	840	1
4	19584	844	1
4	19686	848	1
4	19790	852	1
4	19893	856	1
4	19944	860	1
4	20044	864	1
4	20145	868	1
4	20248	872	1
4	20351	876	1
4	20402	880	1
4	20504	884	1
4	20606	888	1
4	20709	892	1
4	20814	896	1
4	20865	900	1
4	20967	904	1
4	21068	908	1
4	21172	912	1
4	21274	916	1
4	21325	920	1
4	21428	924	1
4	21529	928	1
4	21631	932	1
4	21736	936	1
4	21787	940	1
4	21887	944	1
4	21989	948	1
4	22094	952	1
4	22196	956	1
4	22247	960	1
4	22350	964	1
4	22452	968	1
4	22557	972	1
4	22658	976	1
4	22709	980	1
4	22809	984	1
4	22911	988	1
4	23017	992	1
4	23120	996	1
4	23171	1000	1
4	23271	1004	1
4	23373	1008	1
4	23476	1012	1
4	23581	1016	1
4	23632	1020	1
4	23734	1024	1
4	23838	1028	1
4	23939	1032	1
4	24042	1036	1
4	24093	1040	1
4	24193	1044	1
4	24295	1048	1
4	24399	1052	1
4	24501	1056	1
4	24552	1060	1
4	24659	1064	1
4	24761	1068	1
4	24863	1072	1
4	24966	1076	1
4	25017	1080	1
4	25117	1084	1
4	25219	1088	1
4	25322	1092	1
4	25426	1096	1
4	25477	1100	1
4	25580	1104	1
4	25684	1108	1
4	25785	1112	1
4	25889	1116	1
4	25940	1120	1
4	26042	1124	1
4	26144	1128	1
4	26247	1132	1
4	26350	1136	1
4	26401	1140	1
4	26507	1144	1
4	26609	1148	1
4	26713	1152	1
4	26814	1156	1
4	26865	1160	1
4	26966	1164	1
4	27070	1168	1
4	27171	1172	1
4	27273	1176	1
4	27324	1180	1
4	27427	1184	1
4	27528	1188	1
4	27631	1192	1
4	27734	1196	1
4	27785	1200	1
4	27892	1204	1
4	27993	1208	1
4	28095	1212	1
4	28198	1216	1
4	28249	1220	1
4	28352	1224	1
4	28454	1228	1
4	28557	1232	1
4	28662	1236	1
4	28713	1240	1
4	28816	1244	1
4	28919	1248	1
4	29021	1252	1
4	29125	1256	1
4	29176	1260	1
4	29278	1264	1
4	29380	1268	1
4	29482	1272	1
4	29585	1276	1
4	29636	1280	1
4	29736	1284	1
4	29839	1288	1
4	29941	1292	1
4	30044	1296	1
4	30095	1300	1
4	30198	1304	1
4	30300	1308	1
4	30403	1312	1
4	30506	1316	1
4	30557	1320	1
4	30659	1324	1
4	30764	1328	1
4	30867	1332	1
4	30970	1336	1
4	31021	1340	1
4	31123	1344	1
4	31224	1348	1
4	31328	1352	1
4	31430	1356	1
4	31481	1360	1
4	31582	1364	1
4	31685	1368	1
4	31788	1372	1
4	31889	1376	1
4	31940	1380	1
4	32042	1384	1
4	32146	1388	1
4	32248	1392	1
4	32350	1396	1
4	32401	1400	1
4	32501	1404	1
4	32603	1408	1
4	32708	1412	1
4	32809	1416	1
4	32860	1420	1
4	32961	1424	1
4	33065	1428	1
4	33167	1432	1
4	33270	1436	1
4	33321	1440	1
4	33424	1444	1
4	33525	1448	1
4	33627	1452	1
4	33731	1456	1
4	33782	1460	1
4	33885	1464	1
4	33987	1468	1
4	34090	1472	1
4	34193	1476	1
4	34244	1480	1
4	34347	1484	1
4	34453	1488	1
4	34554	1492	1
4	34656	1496	1
4	34707	1500	1
4	34808	1504	1
4	34909	1508	1
4	35012	1512	1
4	35114	1516	1
4	35165	1520	1
4	35268	1524	1
4	35369	1528	1
4	35471	1532	1
4	35576	1536	1
4	35627	1540	1
4	35727	1544	1
4	35828	1548	1
4	35929	1552	1
4	36033	1556	1
4	36084	1560	1
4	36185	1564	1
4	36288	1568	1
4	36392	1572	1
4	36493	1576	1
4	36544	1580	1
4	36645	1584	1
4	36749	1588	1
4	36851	1592	1
4	36955	1596	1
4	37006	1600	1
4	37109	1604	1
4	37210	1608	1
4	37312	1612	1
4	37416	1616	1
4	37467	1620	1
4	37568	1624	1
4	37670	1628	1
4	37773	1632	1
4	37877	1636	1
4	37928	1640	1
4	38028	1644	1
4	38129	1648	1
4	38232	1652	1
4	38333	1656	1
4	38384	1660	1
4	38485	1664	1
4	38588	1668	1
4	38692	1672	1
4	38795	1676	1
4	38846	1680	1
4	38946	1684	1
4	39047	1688	1
4	39151	1692	1
4	39252	1696	1
4	39303	1700	1
4	39404	1704	1
4	39507	1708	1
4	39611	1712	1
4	39712	1716	1
4	39763	1720	1
4	39863	1724	1
4	39966	1728	1
4	40067	1732	1
4	40169	1736	1
4	40220	1740	1
4	40324	1744	1
4	40426	1748	1
4	40530	1752	1
4	40633	1756	1
4	40684	1760	1
4	40784	1764	1
4	40886	1768	1
4	40988	1772	1
4	41094	1776	1
4	41145	1780	1
4	41245	1784	1
4	41346	1788	1
4	41447	1792	1
4	41549	1796	1
4	41600	1800	1
4	41703	1804	1
4	41805	1808	1
4	41908	1812	1
4	42012	1816	1
4	42063	1820	1
4	42163	1824	1
4	42265	1828	1
4	42369	1832	1
4	42471	1836	1
4	42522	1840	1
4	42625	1844	1
4	42727	1848	1
4	42830	1852	1
4	42935	1856	1
4	42986	1860	1
4	43087	1864	1
4	43190	1868	1
4	43294	1872	1
4	43395	1876	1
4	43446	1880	1
4	43548	1884	1
4	43650	1888	1
4	43755	1892	1
4	43857	1896	1
4	43908	1900	1
4	44009	1904	1
4	44113	1908	1
4	44215	1912	1
4	44320	1916	1
4	44371	1920	1
4	44471	1924	1
4	44572	1928	1
4	44673	1932	1
4	44774	1936	1
4	44825	1940	1
4	44927	1944	1
4	45028	1948	1
4	45130	1952	1
4	45234	1956	1
4	45285	1960	1
4	45385	1964	1
4	45486	1968	1
4	45588	1972	1
4	45691	1976	1
4	45742	1980	1
4	45846	1984	1
4	45948	1988	1
4	46051	1992	1
4	46155	1996	1
4	46206	2000	1
4	46307	2004	1
4	46409	2008	1
4	46513	2012	1
4	46616	2016	1
4	46667	2020	1
4	46767	2024	1
4	46870	2028	1
4	46975	2032	1
4	47076	2036	1
4	47127	2040	1
4	47229	2044	1
4	47331	2048	1
4	47435	2052	1
4	47536	2056	1
4	47587	2060	1
[...]
103	38260	1652	1
103	38361	1656	1
103	38412	1660	1
103	38513	1664	1
103	38616	1668	1
103	38720	1672	1
103	38823	1676	1
103	38874	1680	1
103	38974	1684	1
103	39075	1688	1
103	39179	1692	1
103	39280	1696	1
103	39331	1700	1
103	39432	1704	1
103	39535	1708	1
103	39639	1712	1
103	39740	1716	1
103	39791	1720	1
103	39891	1724	1
103	39994	1728	1
103	40095	1732	1
103	40197	1736	1
103	40248	1740	1
103	40352	1744	1
103	40454	1748	1
103	40558	1752	1
103	40661	1756	1
103	40712	1760	1
103	40812	1764	1
103	40914	1768	1
103	41016	1772	1
103	41122	1776	1
103	41173	1780	1
103	41273	1784	1
103	41374	1788	1
103	41475	1792	1
103	41577	1796	1
103	41628	1800	1
103	41731	1804	1
103	41833	1808	1
103	41936	1812	1
103	42040	1816	1
103	42091	1820	1
103	42191	1824	1
103	42293	1828	1
103	42397	1832	1
103	42499	1836	1
103	42550	1840	1
103	42653	1844	1
103	42755	1848	1
103	43014	1860	1
103	43115	1864	1
103	43218	1868	1
103	43322	1872	1
103	43423	1876	1
103	43474	1880	1
103	43576	1884	1
103	43678	1888	1
103	43783	1892	1
103	43885	1896	1
103	43936	1900	1
103	44037	1904	1
103	44141	1908	1
103	44243	1912	1
103	44348	1916	1
103	44399	1920	1
103	44499	1924	1
103	44600	1928	1
103	44701	1932	1
103	44802	1936	1
103	44853	1940	1
103	44955	1944	1
103	45056	1948	1
103	45158	1952	1
103	45262	1956	1
103	45313	1960	1
103	45413	1964	1
103	45514	1968	1
103	45616	1972	1
103	45719	1976	1
103	45770	1980	1
103	45874	1984	1
103	45976	1988	1
103	46079	1992	1
103	46183	1996	1
103	46234	2000	1
103	46335	2004	1
103	46437	2008	1
103	46541	2012	1
103	46644	2016	1
103	46695	2020	1
103	46795	2024	1
103	46898	2028	1
103	47003	2032	1
103	47104	2036	1
103	47155	2040	1
103	47257	2044	1
103	47359	2048	1
103	47463	2052	1
103	47564	2056	1
103	47615	2060	1
103	47716	2064	1
103	47820	2068	1
103	47921	2072	1
103	48022	2076	1
103	48073	2080	1
103	48176	2084	1
103	48279	2088	1
103	48381	2092	1
103	48486	2096	1
103	48537	2100	1
103	48638	2104	1
103	48744	2108	1
103	48846	2112	1
103	48949	2116	1
103	49000	2120	1
103	49103	2124	1
103	49206	2128	1
103	49308	2132	1
103	49412	2136	1
103	49463	2140	1
103	49565	2144	1
103	49666	2148	1
103	49769	2152	1
103	49870	2156	1
103	49921	2160	1
103	50022	2164	1
103	50126	2168	1
103	50229	2172	1
103	50331	2176	1
103	50382	2180	1
103	50484	2184	1
103	50588	2188	1
103	50691	2192	1
103	50794	2196	1
103	50845	2200	1
103	50946	2204	1
103	51049	2208	1
103	51155	2212	1
103	51258	2216	1
103	51309	2220	1
103	51410	2224	1
103	51514	2228	1
103	51616	2232	1
103	51719	2236	1
103	51770	2240	1
103	51874	2244	1
103	51975	2248	1
103	52077	2252	1
103	52181	2256	1
103	52232	2260	1
103	52333	2264	1
103	52437	2268	1
103	52539	2272	1
103	52641	2276	1
103	52692	2280	1
103	52793	2284	1
103	52897	2288	1
103	53002	2292	1
103	53103	2296	1
103	53154	2300	1
103	53255	2304	1
103	53360	2308	1
103	53463	2312	1
103	53564	2316	1
103	53615	2320	1
103	53715	2324	1
103	53817	2328	1
103	53920	2332	1
103	54025	2336	1
103	54076	2340	1
103	54177	2344	1
103	54281	2348	1
103	54385	2352	1
103	54486	2356	1
103	54537	2360	1
103	54639	2364	1
103	54741	2368	1
103	54847	2372	1
103	54948	2376	1
103	54999	2380	1
103	55099	2384	1
103	55200	2388	1
103	55303	2392	1
103	55405	2396	1
103	55456	2400	1
103	55559	2404	1
103	55661	2408	1
103	55763	2412	1
103	55864	2416	1
103	55915	2420	1
103	56017	2424	1
103	56119	2428	1
103	56222	2432	1
103	56326	2436	1
103	56377	2440	1
103	56479	2444	1
103	56580	2448	1
103	56682	2452	1
103	56788	2456	1
103	56839	2460	1
103	56940	2464	1
103	57044	2468	1
103	57145	2472	1
103	57246	2476	1
103	57297	2480	1
103	57398	2484	1
103	57503	2488	1
103	57604	2492	1
103	57706	2496	1
103	57757	2500	1
103	57858	2504	1
103	57960	2508	1
103	58063	2512	1
103	58168	2516	1
103	58219	2520	1
103	58319	2524	1
103	58421	2528	1
103	58524	2532	1
103	58629	2536	1
103	58680	2540	1
103	58781	2544	1
103	58886	2548	1
103	58988	2552	1
103	59091	2556	1
103	59142	2560	1
103	59247	2564	1
103	59348	2568	1
103	59451	2572	1
103	59553	2576	1
103	59604	2580	1
103	59709	2584	1
103	59810	2588	1
103	59912	2592	1
103	60017	2596	1
103	60068	2600	1
103	60168	2604	1
103	60269	2608	1
103	60370	2612	1
103	60472	2616	1
103	60523	2620	1
103	60625	2624	1
103	60728	2628	1
103	60832	2632	1
103	60933	2636	1
103	60984	2640	1
103	61087	2644	1
103	61190	2648	1
103	61291	2652	1
103	61392	2656	1
103	61443	2660	1
103	61546	2664	1
103	61649	2668	1
103	61750	2672	1
103	61851	2676	1
103	61902	2680	1
103	62004	2684	1
103	62105	2688	1
103	62207	2692	1
103	62309	2696	1
103	62360	2700	1
103	62462	2704	1
103	62566	2708	1
103	62667	2712	1
103	62768	2716	1
103	62819	2720	1
103	62920	2724	1
103	63023	2728	1
103	63128	2732	1
103	63229	2736	1
103	63280	2740	1
103	63380	2744	1
103	63482	2748	1
103	63584	2752	1
103	63688	2756	1
103	63739	2760	1
103	63841	2764	1
103	63942	2768	1
103	64044	2772	1
103	64148	2776	1
103	64199	2780	1
103	64300	2784	1
103	64404	2788	1
103	64506	2792	1
103	64609	2796	1
103	64660	2800	1
103	64762	2804	1
103	64865	2808	1
103	64970	2812	1
103	65072	2816	1
103	65123	2820	1
103	65225	2824	1
103	65327	2828	1
103	65431	2832	1
103	65532	2836	1
103	65583	2840	1
103	65683	2844	1
103	65784	2848	1
103	65885	2852	1
103	65987	2856	1
103	66038	2860	1
103	66142	2864	1
103	66244	2868	1
103	66348	2872	1
103	66450	2876	1
103	66501	2880	1
103	66602	2884	1
103	66706	2888	1
103	66807	2892	1
103	66908	2896	1
103	66959	2900	1
103	67059	2904	1
103	67161	2908	1
103	67264	2912	1
103	67368	2916	1
103	67419	2920	1
103	67519	2924	1
103	67620	2928	1
103	67722	2932	1
103	67825	2936	1
103	67876	2940	1
103	67979	2944	1
103	68081	2948	1
103	68184	2952	1
103	68289	2956	1
103	68340	2960	1
103	68441	2964	1
103	68545	2968	1
103	68646	2972	1
103	68747	2976	1
103	68798	2980	1
103	68901	2984	1
103	69004	2988	1
103	69105	2992	1
103	69206	2996	1
103	69257	3000	1
103	69360	3004	1
103	69461	3008	1
103	69562	3012	1
103	69665	3016	1
103	69716	3020	1
103	69816	3024	1
103	69917	3028	1
103	70018	3032	1
103	70119	3036	1
103	70170	3040	1
103	70271	3044	1
103	70374	3048	1
103	70477	3052	1
103	70582	3056	1
103	70633	3060	1
103	70733	3064	1
103	70834	3068	1
103	70935	3072	1
103	71037	3076	1
103	71088	3080	1
103	71190	3084	1
103	71294	3088	1
103	71397	3092	1
103	71498	3096	1
103	71549	3100	1
103	71650	3104	1
103	71753	3108	1
103	71857	3112	1
103	71958	3116	1
103	72009	3120	1
103	72110	3124	1
103	72215	3128	1
103	72316	3132	1
103	72418	3136	1
103	72469	3140	1
103	72571	3144	1
103	72674	3148	1
103	72776	3152	1
103	72878	3156	1
103	72929	3160	1
103	73033	3164	1
103	73134	3168	1
103	73235	3172	1
103	73337	3176	1
103	73388	3180	1
103	73491	3184	1
103	73593	3188	1
103	73697	3192	1
103	73798	3196	1
103	73849	3200	1
103	73950	3204	1
103	74054	3208	1
103	74157	3212	1
103	74259	3216	1
103	74310	3220	1
103	74413	3224	1
103	74516	3228	1
103	74617	3232	1
103	74719	3236	1
103	74770	3240	1
103	74872	3244	1
103	74978	3248	1
103	75079	3252	1
103	75182	3256	1
103	75233	3260	1
103	75334	3264	1
103	75438	3268	1
103	75539	3272	1
103	75642	3276	1
103	75693	3280	1
103	75795	3284	1
103	75896	3288	1
103	75998	3292	1
103	76103	3296	1
103	76154	3300	1
103	76255	3304	1
103	76359	3308	1
103	76460	3312	1
103	76562	3316	1
103	76613	3320	1
103	76716	3324	1
103	76817	3328	1
103	76918	3332	1
103	77021	3336	1
103	77072	3340	1
103	77173	3344	1
103	77277	3348	1
103	77382	3352	1
103	77484	3356	1
103	77535	3360	1
103	77637	3364	1
103	77740	3368	1
103	77843	3372	1
103	77949	3376	1
103	78000	3380	1
103	78101	3384	1
103	78205	3388	1
103	78306	3392	1
103	78407	3396	1
103	78458	3400	1
103	78559	3404	1
103	78663	3408	1
103	78766	3412	1
103	78867	3416	1
103	78918	3420	1
103	79020	3424	1
103	79122	3428	1
103	79224	3432	1
103	79329	3436	1
103	79380	3440	1
103	79480	3444	1
103	79583	3448	1
103	79684	3452	1
103	79786	3456	1
103	79837	3460	1
103	79939	3464	1
103	80043	3468	1
103	80145	3472	1
103	80248	3476	1
103	80299	3480	1
103	80401	3484	1
103	80505	3488	1
103	80607	3492	1
103	80711	3496	1
103	80762	3500	1
103	80862	3504	1
103	80965	3508	1
103	81067	3512	1
103	81172	3516	1
103	81223	3520	1
103	81323	3524	1
103	81424	3528	1
103	81526	3532	1
103	81630	3536	1
103	81681	3540	1
103	81782	3544	1
103	81886	3548	1
103	81988	3552	1
103	82092	3556	1
103	82143	3560	1
103	82245	3564	1
103	82347	3568	1
103	82449	3572	1
103	82553	3576	1
103	82604	3580	1
103	82704	3584	1
103	82805	3588	1
103	82908	3592	1
103	83010	3596	1
103	83061	3600	1
104	2594	110	1
105	2594	110	106
106	2594	110	1
107	3999	170	1
107	5649	240	1
107	5752	245	1
107	26448	1140	1
107	27371	1180	1
107	28143	1215	1
107	28296	1220	1
107	35212	1520	1
107	36233	1565	1
107	40267	1740	1
107	41853	1810	1
107	43955	1900	1
107	46099	1995	1
108	3999	170	166
108	5649	240	232
108	5752	245	233
108	26448	1140	1124
108	27371	1180	1160
108	28143	1215	1043
108	28296	1220	976
108	35212	1520	1272
108	36233	1565	421
108	40267	1740	556
108	41853	1810	594
108	43955	1900	676
108	46099	1995	471
109	3999	170	1
109	5649	240	1
109	5752	245	1
109	26448	1140	1
109	27371	1180	1
109	28143	1215	1
109	28296	1220	1
109	35212	1520	1
109	36233	1565	1
109	40267	1740	1
109	41853	1810	1
109	43955	1900	1
109	46099	1995	1
110	5392	230	1
110	6213	265	1
110	13525	580	1
110	13628	585	1
111	5392	230	226
111	6213	265	257
111	13525	580	568
111	13628	585	569
112	5392	230	1
112	6213	265	1
112	13525	580	1
112	13628	585	1
113	6110	260	1
113	8176	350	1
114	6110	260	256
114	8176	350	342
115	6110	260	1
115	8176	350	1
116	6574	280	1
116	21679	935	1
116	22294	960	1
117	6574	280	276
117	21679	935	927
117	22294	960	948
118	6574	280	1
118	21679	935	1
118	22294	960	1
119	6780	290	1
120	6780	290	286
121	6780	290	1
122	7247	310	1
122	11677	500	1
122	14558	625	1
122	15477	665	1
122	75354	3265	1
122	80165	3475	1
122	80318	3480	1
122	80421	3485	1
123	7247	310	306
123	11677	500	492
123	14558	625	613
123	15477	665	649
123	75354	3265	3245
123	80165	3475	3163
123	80318	3480	2976
123	80421	3485	2857
124	7247	310	1
124	11677	500	1
124	14558	625	1
124	15477	665	1
124	75354	3265	1
124	80165	3475	1
124	80318	3480	1
124	80421	3485	1
125	8740	375	1
125	51430	2225	1
125	52353	2265	1
125	53275	2305	1
125	72130	3125	1
125	72948	3160	1
125	77863	3375	1
125	80627	3495	1
126	8740	375	371
126	51430	2225	2217
126	52353	2265	2253
126	53275	2305	2289
126	72130	3125	3105
126	72948	3160	2784
126	77863	3375	1147
126	80627	3495	1227
127	8740	375	1
127	51430	2225	1
127	52353	2265	1
127	53275	2305	1
127	72130	3125	1
127	72948	3160	1
127	77863	3375	1
127	80627	3495	1
128	9101	390	1
128	12603	540	1
128	14301	615	1
128	15836	680	1
128	16501	710	1
128	17321	745	1
128	18810	810	1
128	19067	820	1
128	23421	1010	1
128	29989	1295	1
128	30142	1300	1
128	70394	3050	1
128	72488	3140	1
128	72591	3145	1
128	72694	3150	1
128	73613	3190	1
128	77193	3345	1
128	81087	3515	1
128	81546	3535	1
128	82367	3570	1
129	9101	390	386
129	12603	540	532
129	14301	615	603
129	15836	680	664
129	16501	710	690
129	17321	745	353
129	18810	810	266
129	19067	820	204
129	23421	1010	326
129	29989	1295	583
129	30142	1300	552
129	70394	3050	2238
129	72488	3140	2316
129	72591	3145	2133
129	72694	3150	1854
129	73613	3190	1886
129	77193	3345	293
129	81087	3515	371
129	81546	3535	387
129	82367	3570	418
130	9101	390	1
130	12603	540	1
130	14301	615	1
130	15836	680	1
130	16501	710	1
130	17321	745	1
130	18810	810	1
130	19067	820	1
130	23421	1010	1
130	29989	1295	1
130	30142	1300	1
130	70394	3050	1
130	72488	3140	1
130	72591	3145	1
130	72694	3150	1
130	73613	3190	1
130	77193	3345	1
130	81087	3515	1
130	81546	3535	1
130	82367	3570	1
131	9822	420	1
131	10494	450	1
131	12138	520	1
131	16398	705	1
131	16604	715	1
131	24343	1050	1
131	30348	1310	1
131	30451	1315	1
131	30707	1325	1
131	37616	1625	1
131	45636	1975	1
131	51069	2210	1
131	63043	2730	1
131	64320	2785	1
131	67181	2910	1
131	67284	2915	1
131	68204	2955	1
132	9822	420	416
132	10494	450	442
132	12138	520	508
132	16398	705	689
132	16604	715	695
132	24343	1050	626
132	30348	1310	858
132	30451	1315	791
132	30707	1325	617
132	37616	1625	909
132	45636	1975	923
132	51069	2210	898
132	63043	2730	1414
132	64320	2785	1457
132	67181	2910	1282
132	67284	2915	939
132	68204	2955	743
133	9822	420	1
133	10494	450	1
133	12138	520	1
133	16398	705	1
133	16604	715	1
133	24343	1050	1
133	30348	1310	1
133	30451	1315	1
133	30707	1325	1
133	37616	1625	1
133	45636	1975	1
133	51069	2210	1
133	63043	2730	1
133	64320	2785	1
133	67181	2910	1
133	67284	2915	1
133	68204	2955	1
134	10136	435	1
134	22500	970	1
134	29428	1270	1
134	30604	1320	1
134	32296	1395	1
134	32651	1410	1
134	34754	1500	1
134	35519	1535	1
134	36336	1570	1
134	46355	2005	1
134	49328	2135	1
134	52097	2255	1
134	54197	2345	1
134	54761	2370	1
134	55681	2410	1
134	58083	2515	1
134	63502	2750	1
134	64526	2795	1
134	64679	2800	1
134	64782	2805	1
134	64885	2810	1
135	10136	435	431
135	22500	970	962
135	29428	1270	1258
135	30604	1320	1304
135	32296	1395	1375
135	32651	1410	974
135	34754	1500	528
135	35519	1535	263
135	36336	1570	246
135	46355	2005	609
135	49328	2135	723
135	52097	2255	751
135	54197	2345	809
135	54761	2370	798
135	55681	2410	402
135	58083	2515	379
135	63502	2750	494
135	64526	2795	447
135	64679	2800	428
135	64782	2805	393
135	64885	2810	294
136	10136	435	1
136	22500	970	1
136	29428	1270	1
136	30604	1320	1
136	32296	1395	1
136	32651	1410	1
136	34754	1500	1
136	35519	1535	1
136	36336	1570	1
136	46355	2005	1
136	49328	2135	1
136	52097	2255	1
136	54197	2345	1
136	54761	2370	1
136	55681	2410	1
136	58083	2515	1
136	63502	2750	1
136	64526	2795	1
136	64679	2800	1
136	64782	2805	1
136	64885	2810	1
137	11780	505	1
137	17785	765	1
137	19734	850	1
137	20654	890	1
137	20757	895	1
138	11780	505	501
138	17785	765	757
138	19734	850	838
138	20654	890	874
138	20757	895	875
139	11780	505	1
139	17785	765	1
139	19734	850	1
139	20654	890	1
139	20757	895	1
140	13991	600	1
140	24809	1070	1
140	26657	1150	1
140	29069	1255	1
140	31528	1360	1
140	33215	1435	1
140	34035	1470	1
140	34138	1475	1
140	34291	1480	1
140	36899	1595	1
140	60748	2630	1
140	66264	2870	1
140	66520	2880	1
140	68101	2950	1
141	13991	600	596
141	24809	1070	1062
141	26657	1150	1138
141	29069	1255	1239
141	31528	1360	1340
141	33215	1435	831
141	34035	1470	398
141	34138	1475	323
141	34291	1480	224
141	36899	1595	231
141	60748	2630	1194
141	66264	2870	1398
141	66520	2880	1404
141	68101	2950	1466
142	13991	600	1
142	24809	1070	1
142	26657	1150	1
142	29069	1255	1
142	31528	1360	1
142	33215	1435	1
142	34035	1470	1
142	34138	1475	1
142	34291	1480	1
142	36899	1595	1
142	60748	2630	1
142	66264	2870	1
142	66520	2880	1
142	68101	2950	1
143	17527	755	1
143	18245	785	1
143	18348	790	1
144	17527	755	751
144	18245	785	777
144	18348	790	778
145	17527	755	1
145	18245	785	1
145	18348	790	1
146	18451	795	1
146	18707	805	1
146	24599	1060	1
146	47379	2050	1
147	18451	795	791
147	18707	805	797
147	24599	1060	1048
147	47379	2050	2034
148	18451	795	1
148	18707	805	1
148	24599	1060	1
148	47379	2050	1
149	21372	920	1
149	22959	990	1
149	23524	1015	1
149	25267	1090	1
149	25370	1095	1
149	27014	1165	1
149	28502	1230	1
149	28605	1235	1
150	21372	920	916
150	22959	990	982
150	23524	1015	1003
150	25267	1090	1074
150	25370	1095	1075
150	27014	1165	241
150	28502	1230	238
150	28605	1235	219
151	21372	920	1
151	22959	990	1
151	23524	1015	1
151	25267	1090	1
151	25370	1095	1
151	27014	1165	1
151	28502	1230	1
151	28605	1235	1
152	22037	950	1
153	22037	950	946
154	22037	950	1
155	26192	1130	1
155	26295	1135	1
156	26192	1130	1126
156	26295	1135	1127
157	26192	1130	1
157	26295	1135	1
158	33009	1425	1
158	48658	2105	1
158	53837	2330	1
158	53940	2335	1
158	56139	2430	1
158	56242	2435	1
159	33009	1425	1421
159	48658	2105	2097
159	53837	2330	2318
159	53940	2335	2319
159	56139	2430	2410
159	56242	2435	1007
160	33009	1425	1
160	48658	2105	1
160	53837	2330	1
160	53940	2335	1
160	56139	2430	1
160	56242	2435	1
161	33368	1440	1
161	33675	1455	1
161	36693	1585	1
161	37360	1615	1
161	38533	1665	1
161	38636	1670	1
161	42569	1840	1
161	43135	1865	1
161	43238	1870	1
161	43698	1890	1
161	45789	1980	1
162	33368	1440	1436
162	33675	1455	1447
162	36693	1585	1573
162	37360	1615	1599
162	38533	1665	1645
162	38636	1670	226
162	42569	1840	384
162	43135	1865	277
162	43238	1870	254
162	43698	1890	222
162	45789	1980	308
163	33368	1440	1
163	33675	1455	1
163	36693	1585	1
163	37360	1615	1
163	38533	1665	1
163	38636	1670	1
163	42569	1840	1
163	43135	1865	1
163	43238	1870	1
163	43698	1890	1
163	45789	1980	1
164	39452	1705	1
164	39555	1710	1
164	40474	1750	1
164	40934	1770	1
164	41647	1800	1
164	41956	1815	1
164	42313	1830	1
164	44263	1915	1
164	45178	1955	1
164	56702	2455	1
164	56960	2465	1
164	58441	2530	1
164	58544	2535	1
164	59623	2580	1
164	59932	2595	1
164	60542	2620	1
164	60645	2625	1
164	62227	2695	1
164	62940	2725	1
164	64064	2775	1
164	65142	2820	1
164	65245	2825	1
164	66057	2860	1
164	68461	2965	1
164	70291	3045	1
164	70497	3055	1
164	71107	3080	1
164	71210	3085	1
164	71670	3105	1
164	71773	3110	1
164	73407	3180	1
165	39452	1705	1701
165	39555	1710	1702
165	40474	1750	1738
165	40934	1770	1754
165	41647	1800	1780
165	41956	1815	107
165	42313	1830	118
165	44263	1915	163
165	45178	1955	183
165	56702	2455	651
165	56960	2465	649
165	58441	2530	698
165	58544	2535	619
165	59623	2580	624
165	59932	2595	139
165	60542	2620	152
165	60645	2625	93
165	62227	2695	159
165	62940	2725	141
165	64064	2775	179
165	65142	2820	196
165	65245	2825	197
165	66057	2860	164
165	68461	2965	237
165	70291	3045	269
165	70497	3055	231
165	71107	3080	252
165	71210	3085	221
165	71670	3105	137
165	71773	3110	62
165	73407	3180	124
166	39452	1705	1
166	39555	1710	1
166	40474	1750	1
166	40934	1770	1
166	41647	1800	1
166	41956	1815	1
166	42313	1830	1
166	44263	1915	1
166	45178	1955	1
166	56702	2455	1
166	56960	2465	1
166	58441	2530	1
166	58544	2535	1
166	59623	2580	1
166	59932	2595	1
166	60542	2620	1
166	60645	2625	1
166	62227	2695	1
166	62940	2725	1
166	64064	2775	1
166	65142	2820	1
166	65245	2825	1
166	66057	2860	1
166	68461	2965	1
166	70291	3045	1
166	70497	3055	1
166	71107	3080	1
166	71210	3085	1
166	71670	3105	1
166	71773	3110	1
166	73407	3180	1
167	45996	1990	1
167	47736	2065	1
167	50042	2165	1
167	74329	3220	1
167	74892	3245	1
167	76018	3295	1
167	76632	3320	1
167	78121	3385	1
167	78579	3405	1
167	79142	3430	1
167	79856	3460	1
167	79959	3465	1
168	45996	1990	1986
168	47736	2065	2057
168	50042	2165	2153
168	74329	3220	3204
168	74892	3245	3225
168	76018	3295	1303
168	76632	3320	1252
168	78121	3385	1217
168	78579	3405	181
168	79142	3430	182
168	79856	3460	164
168	79959	3465	141
169	45996	1990	1
169	47736	2065	1
169	50042	2165	1
169	74329	3220	1
169	74892	3245	1
169	76018	3295	1
169	76632	3320	1
169	78121	3385	1
169	78579	3405	1
169	79142	3430	1
169	79856	3460	1
169	79959	3465	1
170	48401	2095	1
170	48866	2115	1
170	49019	2120	1
170	58801	2545	1
170	83080	3600	1
171	48401	2095	2091
171	48866	2115	2107
171	49019	2120	2108
171	58801	2545	2529
171	83080	3600	3580
172	48401	2095	1
172	48866	2115	1
172	49019	2120	1
172	58801	2545	1
172	83080	3600	1
173	50401	2180	1
173	50504	2185	1
173	51789	2240	1
174	50401	2180	2176
174	50504	2185	2177
174	51789	2240	2228
175	50401	2180	1
175	50504	2185	1
175	51789	2240	1
176	50966	2205	1
176	51636	2235	1
176	52559	2275	1
176	52813	2285	1
176	55475	2400	1
176	57418	2485	1
176	57776	2500	1
176	57980	2510	1
177	50966	2205	2201
177	51636	2235	2227
177	52559	2275	2263
177	52813	2285	2269
177	55475	2400	2380
177	57418	2485	277
177	57776	2500	264
177	57980	2510	234
178	50966	2205	1
178	51636	2235	1
178	52559	2275	1
178	52813	2285	1
178	55475	2400	1
178	57418	2485	1
178	57776	2500	1
178	57980	2510	1
179	59008	2555	1
179	59161	2560	1
180	59008	2555	2551
180	59161	2560	2552
181	59008	2555	1
181	59161	2560	1
182	67742	2935	1
182	67895	2940	1
182	76275	3305	1
182	77554	3360	1
182	77657	3365	1
182	77760	3370	1
183	67742	2935	2931
183	67895	2940	2932
183	76275	3305	3293
183	77554	3360	3344
183	77657	3365	3345
183	77760	3370	434
184	67742	2935	1
184	67895	2940	1
184	76275	3305	1
184	77554	3360	1
184	77657	3365	1
184	77760	3370	1
185	73970	3205	1
185	74789	3240	1
186	73970	3205	3201
186	74789	3240	3232
187	73970	3205	1
187	74789	3240	1
188	81802	3545	1
188	82008	3555	1
189	81802	3545	3541
189	82008	3555	3547
190	81802	3545	1
190	82008	3555	1

