version 2
run FourthVerification-3-20201214-15:14:40-220623
attr configname FourthVerification
attr datetime 20201214-15:14:40
attr experiment FourthVerification
attr inifile omnetpp.ini
attr iterationvars "$0=2, $1=0.8"
attr iterationvarsf 2,0.8-
attr measurement "$0=2, $1=0.8"
attr network slottedNetwork
attr processid 220623
attr repetition 0
attr replication #0
attr resultdir results
attr runnumber 3
attr seedset 3
param **.numTransmitters 2
param **.numChannels 1
param **.bufferSize 5
param **.sendProbability 0.8
param **.expMean 4s
param **.timeSlotSize 5s
param **.thresh 20s
param **.deterministicInterarrivalTime true
param **.numTransmitters 1
param **.numChannels 1
param **.bufferSize 5
param **.sendProbability 1
param **.expMean 5s
param **.timeSlotSize 5s
param **.thresh 20s
param **.deterministicInterarrivalTime false

vector 0 slottedNetwork.transmitters[0] numPacketCreated:vector ETV
attr source numPacketCreatedSignal
vector 1 slottedNetwork.transmitters[1] numPacketCreated:vector ETV
attr source numPacketCreatedSignal
vector 2 slottedNetwork.ch throughput:vector ETV
attr source throughputSignal
vector 3 slottedNetwork.transmitters[0] numPacketDiscarded:vector ETV
attr source numPacketDiscardedSignal
vector 4 slottedNetwork.transmitters[1] numPacketDiscarded:vector ETV
attr source numPacketDiscardedSignal
vector 5 slottedNetwork.receivers[0] numPacketReceived:vector ETV
attr source numPacketReceivedSignal
vector 6 slottedNetwork.receivers[0] responseTime:vector ETV
attr source responseTimeSignal
vector 7 slottedNetwork.receivers[0] threshold:vector ETV
attr source thresholdSignal
vector 8 slottedNetwork.receivers[1] numPacketReceived:vector ETV
attr source numPacketReceivedSignal
vector 9 slottedNetwork.receivers[1] responseTime:vector ETV
attr source responseTimeSignal
vector 10 slottedNetwork.receivers[1] threshold:vector ETV
attr source thresholdSignal
0	1	4	1
0	8	8	1
0	13	12	1
0	18	16	1
0	21	20	1
0	25	24	1
0	30	28	1
0	36	32	1
0	44	36	1
0	47	40	1
0	51	44	1
0	56	48	1
0	61	52	1
0	66	56	1
0	69	60	1
0	74	64	1
0	82	68	1
0	87	72	1
0	92	76	1
0	95	80	1
0	99	84	1
0	104	88	1
0	110	92	1
0	117	96	1
0	120	100	1
0	126	104	1
0	133	108	1
0	140	112	1
0	147	116	1
0	150	120	1
0	157	124	1
0	162	128	1
0	167	132	1
0	172	136	1
0	175	140	1
0	180	144	1
0	187	148	1
0	194	152	1
0	202	156	1
0	205	160	1
0	209	164	1
0	214	168	1
0	219	172	1
0	224	176	1
0	227	180	1
0	231	184	1
0	237	188	1
0	244	192	1
0	251	196	1
0	254	200	1
0	260	204	1
0	266	208	1
0	272	212	1
0	279	216	1
0	282	220	1
0	288	224	1
0	294	228	1
0	300	232	1
0	306	236	1
0	309	240	1
0	313	244	1
0	319	248	1
0	326	252	1
0	332	256	1
0	335	260	1
0	340	264	1
0	347	268	1
0	354	272	1
0	361	276	1
0	364	280	1
0	370	284	1
0	377	288	1
0	384	292	1
0	391	296	1
0	394	300	1
0	399	304	1
0	405	308	1
0	413	312	1
0	418	316	1
0	421	320	1
0	425	324	1
0	430	328	1
0	435	332	1
0	441	336	1
0	444	340	1
0	450	344	1
0	457	348	1
0	464	352	1
0	470	356	1
0	473	360	1
0	478	364	1
0	485	368	1
0	492	372	1
0	499	376	1
0	502	380	1
0	508	384	1
0	515	388	1
0	522	392	1
0	529	396	1
0	532	400	1
0	538	404	1
0	544	408	1
0	549	412	1
0	555	416	1
0	558	420	1
0	564	424	1
0	571	428	1
0	578	432	1
0	585	436	1
0	588	440	1
0	593	444	1
0	599	448	1
0	606	452	1
0	613	456	1
0	616	460	1
0	622	464	1
0	629	468	1
0	636	472	1
0	643	476	1
0	646	480	1
0	652	484	1
0	659	488	1
0	666	492	1
0	673	496	1
0	676	500	1
0	682	504	1
0	689	508	1
0	696	512	1
0	703	516	1
0	706	520	1
0	712	524	1
0	719	528	1
0	726	532	1
0	733	536	1
0	736	540	1
0	742	544	1
0	749	548	1
0	756	552	1
0	762	556	1
0	765	560	1
0	770	564	1
0	777	568	1
0	784	572	1
0	791	576	1
0	794	580	1
0	800	584	1
0	806	588	1
0	812	592	1
0	818	596	1
0	821	600	1
0	825	604	1
0	831	608	1
0	837	612	1
0	842	616	1
0	845	620	1
0	850	624	1
0	858	628	1
0	863	632	1
0	868	636	1
0	871	640	1
0	875	644	1
0	881	648	1
0	888	652	1
0	896	656	1
0	899	660	1
0	903	664	1
0	908	668	1
0	913	672	1
0	918	676	1
0	921	680	1
0	925	684	1
0	932	688	1
0	937	692	1
0	942	696	1
0	945	700	1
0	951	704	1
0	956	708	1
0	961	712	1
0	966	716	1
0	969	720	1
0	973	724	1
0	978	728	1
0	983	732	1
0	988	736	1
0	991	740	1
0	995	744	1
0	1000	748	1
0	1005	752	1
0	1010	756	1
0	1013	760	1
0	1017	764	1
0	1022	768	1
0	1027	772	1
0	1032	776	1
0	1035	780	1
0	1040	784	1
0	1047	788	1
0	1055	792	1
0	1060	796	1
0	1063	800	1
0	1067	804	1
0	1073	808	1
0	1079	812	1
0	1085	816	1
0	1088	820	1
0	1094	824	1
0	1102	828	1
0	1107	832	1
0	1112	836	1
0	1115	840	1
0	1119	844	1
0	1124	848	1
0	1130	852	1
0	1136	856	1
0	1139	860	1
0	1144	864	1
0	1151	868	1
0	1158	872	1
0	1165	876	1
0	1168	880	1
0	1174	884	1
0	1180	888	1
0	1185	892	1
0	1191	896	1
0	1194	900	1
0	1200	904	1
0	1207	908	1
0	1214	912	1
0	1221	916	1
0	1224	920	1
0	1230	924	1
0	1237	928	1
0	1244	932	1
0	1251	936	1
0	1254	940	1
0	1260	944	1
0	1267	948	1
0	1274	952	1
0	1281	956	1
0	1284	960	1
0	1290	964	1
0	1297	968	1
0	1304	972	1
0	1311	976	1
0	1314	980	1
0	1320	984	1
0	1327	988	1
0	1333	992	1
0	1339	996	1
0	1342	1000	1
0	1348	1004	1
0	1356	1008	1
0	1361	1012	1
0	1366	1016	1
0	1369	1020	1
0	1373	1024	1
0	1378	1028	1
0	1384	1032	1
0	1391	1036	1
0	1394	1040	1
0	1400	1044	1
0	1407	1048	1
0	1413	1052	1
0	1419	1056	1
0	1422	1060	1
0	1428	1064	1
0	1435	1068	1
0	1442	1072	1
0	1448	1076	1
0	1451	1080	1
0	1455	1084	1
0	1460	1088	1
0	1466	1092	1
0	1473	1096	1
0	1476	1100	1
0	1482	1104	1
0	1489	1108	1
0	1496	1112	1
0	1503	1116	1
0	1506	1120	1
0	1512	1124	1
0	1518	1128	1
0	1524	1132	1
0	1530	1136	1
0	1533	1140	1
0	1538	1144	1
0	1545	1148	1
0	1551	1152	1
0	1557	1156	1
0	1560	1160	1
0	1566	1164	1
0	1573	1168	1
0	1579	1172	1
0	1585	1176	1
0	1588	1180	1
0	1594	1184	1
0	1600	1188	1
0	1606	1192	1
0	1612	1196	1
0	1615	1200	1
0	1620	1204	1
0	1626	1208	1
0	1632	1212	1
0	1638	1216	1
0	1641	1220	1
0	1646	1224	1
0	1652	1228	1
0	1658	1232	1
0	1665	1236	1
0	1668	1240	1
0	1674	1244	1
0	1681	1248	1
0	1688	1252	1
0	1695	1256	1
0	1698	1260	1
0	1704	1264	1
0	1711	1268	1
0	1718	1272	1
0	1725	1276	1
0	1728	1280	1
0	1733	1284	1
0	1739	1288	1
0	1746	1292	1
0	1752	1296	1
0	1755	1300	1
0	1759	1304	1
0	1765	1308	1
0	1772	1312	1
0	1779	1316	1
0	1782	1320	1
0	1788	1324	1
0	1795	1328	1
0	1802	1332	1
0	1808	1336	1
0	1811	1340	1
0	1816	1344	1
0	1823	1348	1
0	1830	1352	1
0	1836	1356	1
0	1839	1360	1
0	1844	1364	1
0	1851	1368	1
0	1858	1372	1
0	1864	1376	1
0	1867	1380	1
0	1871	1384	1
0	1876	1388	1
0	1882	1392	1
0	1888	1396	1
0	1891	1400	1
0	1896	1404	1
0	1903	1408	1
0	1910	1412	1
0	1916	1416	1
0	1919	1420	1
0	1924	1424	1
0	1931	1428	1
0	1938	1432	1
0	1945	1436	1
0	1948	1440	1
0	1954	1444	1
0	1961	1448	1
0	1968	1452	1
0	1974	1456	1
0	1977	1460	1
0	1982	1464	1
0	1988	1468	1
0	1994	1472	1
0	2001	1476	1
0	2004	1480	1
0	2010	1484	1
0	2017	1488	1
0	2024	1492	1
0	2031	1496	1
0	2034	1500	1
0	2040	1504	1
0	2047	1508	1
0	2054	1512	1
0	2061	1516	1
0	2064	1520	1
0	2070	1524	1
0	2077	1528	1
0	2084	1532	1
0	2091	1536	1
0	2094	1540	1
0	2100	1544	1
0	2107	1548	1
0	2114	1552	1
0	2120	1556	1
0	2123	1560	1
0	2128	1564	1
0	2134	1568	1
0	2140	1572	1
0	2147	1576	1
0	2150	1580	1
0	2156	1584	1
0	2163	1588	1
0	2170	1592	1
0	2177	1596	1
0	2180	1600	1
0	2185	1604	1
0	2191	1608	1
0	2198	1612	1
0	2205	1616	1
0	2208	1620	1
0	2215	1624	1
0	2220	1628	1
0	2225	1632	1
0	2230	1636	1
0	2233	1640	1
0	2238	1644	1
0	2245	1648	1
0	2252	1652	1
0	2259	1656	1
0	2262	1660	1
0	2268	1664	1
0	2275	1668	1
0	2281	1672	1
0	2287	1676	1
0	2290	1680	1
0	2296	1684	1
0	2302	1688	1
0	2308	1692	1
0	2315	1696	1
0	2318	1700	1
0	2324	1704	1
0	2331	1708	1
0	2338	1712	1
0	2345	1716	1
0	2348	1720	1
0	2354	1724	1
0	2361	1728	1
0	2367	1732	1
0	2373	1736	1
0	2376	1740	1
0	2382	1744	1
0	2389	1748	1
0	2396	1752	1
0	2402	1756	1
0	2405	1760	1
0	2409	1764	1
0	2415	1768	1
0	2422	1772	1
0	2430	1776	1
0	2433	1780	1
0	2437	1784	1
0	2442	1788	1
0	2448	1792	1
0	2455	1796	1
0	2458	1800	1
0	2464	1804	1
0	2471	1808	1
0	2477	1812	1
0	2483	1816	1
0	2486	1820	1
0	2492	1824	1
0	2498	1828	1
0	2504	1832	1
0	2511	1836	1
0	2514	1840	1
0	2520	1844	1
0	2527	1848	1
0	2534	1852	1
0	2541	1856	1
0	2544	1860	1
0	2550	1864	1
0	2556	1868	1
0	2562	1872	1
0	2569	1876	1
0	2572	1880	1
0	2577	1884	1
0	2583	1888	1
0	2590	1892	1
0	2597	1896	1
0	2600	1900	1
0	2605	1904	1
0	2611	1908	1
0	2618	1912	1
0	2625	1916	1
0	2628	1920	1
0	2633	1924	1
0	2639	1928	1
0	2646	1932	1
0	2653	1936	1
0	2656	1940	1
0	2661	1944	1
0	2666	1948	1
0	2672	1952	1
0	2679	1956	1
0	2682	1960	1
0	2688	1964	1
0	2695	1968	1
0	2702	1972	1
0	2709	1976	1
0	2712	1980	1
0	2718	1984	1
0	2725	1988	1
0	2731	1992	1
0	2736	1996	1
0	2739	2000	1
0	2744	2004	1
0	2751	2008	1
0	2758	2012	1
0	2765	2016	1
0	2768	2020	1
0	2774	2024	1
0	2781	2028	1
0	2788	2032	1
0	2795	2036	1
0	2798	2040	1
0	2804	2044	1
0	2810	2048	1
0	2815	2052	1
0	2821	2056	1
0	2824	2060	1
0	2829	2064	1
0	2835	2068	1
0	2841	2072	1
0	2847	2076	1
0	2850	2080	1
0	2856	2084	1
0	2863	2088	1
0	2870	2092	1
0	2877	2096	1
0	2880	2100	1
0	2886	2104	1
0	2893	2108	1
0	2900	2112	1
0	2906	2116	1
0	2909	2120	1
0	2914	2124	1
0	2921	2128	1
0	2928	2132	1
0	2935	2136	1
0	2938	2140	1
0	2944	2144	1
0	2951	2148	1
0	2958	2152	1
0	2965	2156	1
0	2968	2160	1
0	2974	2164	1
0	2980	2168	1
0	2986	2172	1
0	2993	2176	1
0	2996	2180	1
0	3002	2184	1
0	3009	2188	1
0	3016	2192	1
0	3023	2196	1
0	3026	2200	1
0	3032	2204	1
0	3039	2208	1
0	3046	2212	1
0	3053	2216	1
0	3056	2220	1
0	3062	2224	1
0	3069	2228	1
0	3076	2232	1
0	3083	2236	1
0	3086	2240	1
0	3092	2244	1
0	3098	2248	1
0	3103	2252	1
0	3109	2256	1
0	3112	2260	1
0	3118	2264	1
0	3125	2268	1
0	3132	2272	1
0	3139	2276	1
0	3142	2280	1
0	3148	2284	1
0	3154	2288	1
0	3160	2292	1
0	3167	2296	1
0	3170	2300	1
0	3176	2304	1
0	3183	2308	1
0	3190	2312	1
0	3197	2316	1
0	3200	2320	1
0	3206	2324	1
0	3213	2328	1
0	3220	2332	1
0	3226	2336	1
0	3229	2340	1
0	3234	2344	1
0	3240	2348	1
0	3246	2352	1
0	3253	2356	1
0	3256	2360	1
0	3262	2364	1
0	3269	2368	1
0	3276	2372	1
0	3283	2376	1
0	3286	2380	1
0	3292	2384	1
0	3299	2388	1
0	3305	2392	1
0	3311	2396	1
0	3314	2400	1
0	3320	2404	1
0	3327	2408	1
0	3334	2412	1
0	3341	2416	1
0	3344	2420	1
0	3350	2424	1
0	3357	2428	1
0	3363	2432	1
0	3369	2436	1
0	3372	2440	1
0	3377	2444	1
0	3382	2448	1
0	3388	2452	1
0	3395	2456	1
0	3398	2460	1
0	3404	2464	1
0	3411	2468	1
0	3417	2472	1
0	3422	2476	1
0	3425	2480	1
0	3429	2484	1
0	3435	2488	1
0	3441	2492	1
0	3447	2496	1
0	3450	2500	1
0	3456	2504	1
0	3463	2508	1
0	3470	2512	1
0	3477	2516	1
0	3480	2520	1
0	3486	2524	1
0	3493	2528	1
0	3500	2532	1
0	3507	2536	1
0	3510	2540	1
0	3516	2544	1
0	3523	2548	1
0	3530	2552	1
0	3536	2556	1
0	3539	2560	1
0	3544	2564	1
0	3551	2568	1
0	3558	2572	1
0	3565	2576	1
0	3568	2580	1
0	3574	2584	1
0	3581	2588	1
0	3588	2592	1
0	3595	2596	1
0	3598	2600	1
0	3604	2604	1
0	3611	2608	1
0	3617	2612	1
0	3623	2616	1
0	3626	2620	1
0	3632	2624	1
0	3639	2628	1
0	3646	2632	1
0	3652	2636	1
0	3655	2640	1
0	3659	2644	1
0	3665	2648	1
0	3672	2652	1
0	3678	2656	1
0	3681	2660	1
0	3686	2664	1
0	3693	2668	1
0	3699	2672	1
0	3705	2676	1
0	3708	2680	1
0	3714	2684	1
0	3721	2688	1
0	3727	2692	1
0	3733	2696	1
0	3736	2700	1
0	3742	2704	1
0	3749	2708	1
0	3756	2712	1
0	3763	2716	1
0	3766	2720	1
0	3772	2724	1
0	3779	2728	1
0	3786	2732	1
0	3793	2736	1
0	3796	2740	1
0	3802	2744	1
0	3808	2748	1
0	3814	2752	1
0	3821	2756	1
0	3824	2760	1
0	3830	2764	1
0	3837	2768	1
0	3844	2772	1
0	3851	2776	1
0	3854	2780	1
0	3860	2784	1
0	3867	2788	1
0	3874	2792	1
0	3881	2796	1
0	3884	2800	1
0	3890	2804	1
0	3896	2808	1
0	3902	2812	1
0	3909	2816	1
0	3912	2820	1
0	3918	2824	1
0	3925	2828	1
0	3932	2832	1
0	3939	2836	1
0	3942	2840	1
0	3948	2844	1
0	3955	2848	1
0	3962	2852	1
0	3969	2856	1
0	3972	2860	1
0	3978	2864	1
0	3985	2868	1
0	3992	2872	1
0	3998	2876	1
0	4001	2880	1
0	4006	2884	1
0	4013	2888	1
0	4020	2892	1
0	4027	2896	1
0	4030	2900	1
0	4036	2904	1
0	4043	2908	1
0	4050	2912	1
0	4057	2916	1
0	4060	2920	1
0	4066	2924	1
0	4073	2928	1
0	4080	2932	1
0	4086	2936	1
0	4089	2940	1
0	4094	2944	1
0	4101	2948	1
0	4108	2952	1
0	4114	2956	1
0	4117	2960	1
0	4122	2964	1
0	4129	2968	1
0	4136	2972	1
0	4142	2976	1
0	4145	2980	1
0	4149	2984	1
0	4155	2988	1
0	4162	2992	1
0	4169	2996	1
0	4172	3000	1
0	4178	3004	1
0	4184	3008	1
0	4189	3012	1
0	4195	3016	1
0	4198	3020	1
0	4203	3024	1
0	4208	3028	1
0	4214	3032	1
0	4221	3036	1
0	4224	3040	1
0	4230	3044	1
0	4237	3048	1
0	4244	3052	1
0	4251	3056	1
0	4254	3060	1
0	4259	3064	1
0	4264	3068	1
0	4269	3072	1
0	4275	3076	1
0	4278	3080	1
0	4284	3084	1
0	4290	3088	1
0	4296	3092	1
0	4302	3096	1
0	4305	3100	1
0	4310	3104	1
0	4317	3108	1
0	4324	3112	1
0	4331	3116	1
0	4334	3120	1
0	4340	3124	1
0	4346	3128	1
0	4352	3132	1
0	4359	3136	1
0	4362	3140	1
0	4368	3144	1
0	4375	3148	1
0	4382	3152	1
0	4389	3156	1
0	4392	3160	1
0	4398	3164	1
0	4404	3168	1
0	4409	3172	1
0	4415	3176	1
0	4418	3180	1
0	4424	3184	1
0	4431	3188	1
0	4438	3192	1
0	4445	3196	1
0	4448	3200	1
0	4454	3204	1
0	4461	3208	1
0	4468	3212	1
0	4475	3216	1
0	4478	3220	1
0	4484	3224	1
0	4490	3228	1
0	4495	3232	1
0	4500	3236	1
0	4503	3240	1
0	4508	3244	1
0	4515	3248	1
0	4522	3252	1
0	4528	3256	1
0	4531	3260	1
0	4536	3264	1
0	4543	3268	1
0	4550	3272	1
0	4557	3276	1
0	4560	3280	1
0	4566	3284	1
0	4573	3288	1
0	4581	3292	1
0	4586	3296	1
0	4589	3300	1
0	4593	3304	1
0	4598	3308	1
0	4603	3312	1
0	4609	3316	1
0	4612	3320	1
0	4619	3324	1
0	4624	3328	1
0	4629	3332	1
0	4635	3336	1
0	4638	3340	1
0	4644	3344	1
0	4651	3348	1
0	4658	3352	1
0	4666	3356	1
0	4669	3360	1
0	4673	3364	1
0	4678	3368	1
0	4683	3372	1
0	4690	3376	1
0	4693	3380	1
0	4697	3384	1
0	4702	3388	1
0	4707	3392	1
0	4712	3396	1
0	4715	3400	1
0	4719	3404	1
0	4724	3408	1
0	4729	3412	1
0	4734	3416	1
0	4737	3420	1
0	4741	3424	1
0	4746	3428	1
0	4751	3432	1
0	4757	3436	1
0	4760	3440	1
0	4765	3444	1
0	4770	3448	1
0	4776	3452	1
0	4783	3456	1
0	4786	3460	1
0	4792	3464	1
0	4799	3468	1
0	4806	3472	1
0	4813	3476	1
0	4816	3480	1
0	4822	3484	1
0	4828	3488	1
0	4834	3492	1
0	4840	3496	1
0	4843	3500	1
0	4848	3504	1
0	4855	3508	1
0	4862	3512	1
0	4869	3516	1
0	4872	3520	1
0	4878	3524	1
0	4884	3528	1
0	4890	3532	1
0	4897	3536	1
0	4900	3540	1
0	4907	3544	1
0	4912	3548	1
0	4917	3552	1
0	4922	3556	1
0	4925	3560	1
0	4929	3564	1
0	4934	3568	1
0	4939	3572	1
0	4944	3576	1
0	4947	3580	1
0	4951	3584	1
0	4957	3588	1
0	4964	3592	1
0	4971	3596	1
0	4974	3600	1
1	2	4	1
1	9	8	1
1	14	12	1
1	19	16	1
1	22	20	1
1	26	24	1
1	31	28	1
1	37	32	1
1	45	36	1
1	48	40	1
1	52	44	1
1	57	48	1
1	62	52	1
1	67	56	1
1	70	60	1
1	75	64	1
1	83	68	1
1	88	72	1
1	93	76	1
1	96	80	1
1	100	84	1
1	105	88	1
1	111	92	1
1	118	96	1
1	121	100	1
1	127	104	1
1	134	108	1
1	141	112	1
1	148	116	1
1	151	120	1
1	158	124	1
1	163	128	1
1	168	132	1
1	173	136	1
1	176	140	1
1	181	144	1
1	188	148	1
1	195	152	1
1	203	156	1
1	206	160	1
1	210	164	1
1	215	168	1
1	220	172	1
1	225	176	1
1	228	180	1
1	232	184	1
1	238	188	1
1	245	192	1
1	252	196	1
1	255	200	1
1	261	204	1
1	267	208	1
1	273	212	1
1	280	216	1
1	283	220	1
1	289	224	1
1	295	228	1
1	301	232	1
1	307	236	1
1	310	240	1
1	314	244	1
1	320	248	1
1	327	252	1
1	333	256	1
1	336	260	1
1	341	264	1
1	348	268	1
1	355	272	1
1	362	276	1
1	365	280	1
1	371	284	1
1	378	288	1
1	385	292	1
1	392	296	1
1	395	300	1
1	400	304	1
1	406	308	1
1	414	312	1
1	419	316	1
1	422	320	1
1	426	324	1
1	431	328	1
1	436	332	1
1	442	336	1
1	445	340	1
1	451	344	1
1	458	348	1
1	465	352	1
1	471	356	1
1	474	360	1
1	479	364	1
1	486	368	1
1	493	372	1
1	500	376	1
1	503	380	1
1	509	384	1
1	516	388	1
1	523	392	1
1	530	396	1
1	533	400	1
1	539	404	1
1	545	408	1
1	550	412	1
1	556	416	1
1	559	420	1
1	565	424	1
1	572	428	1
1	579	432	1
1	586	436	1
1	589	440	1
1	594	444	1
1	600	448	1
1	607	452	1
1	614	456	1
1	617	460	1
1	623	464	1
1	630	468	1
1	637	472	1
1	644	476	1
1	647	480	1
1	653	484	1
1	660	488	1
1	667	492	1
1	674	496	1
1	677	500	1
1	683	504	1
1	690	508	1
1	697	512	1
1	704	516	1
1	707	520	1
1	713	524	1
1	720	528	1
1	727	532	1
1	734	536	1
1	737	540	1
1	743	544	1
1	750	548	1
1	757	552	1
1	763	556	1
1	766	560	1
1	771	564	1
1	778	568	1
1	785	572	1
1	792	576	1
1	795	580	1
1	801	584	1
1	807	588	1
1	813	592	1
1	819	596	1
1	822	600	1
1	826	604	1
1	832	608	1
1	838	612	1
1	843	616	1
1	846	620	1
1	851	624	1
1	859	628	1
1	864	632	1
1	869	636	1
1	872	640	1
1	876	644	1
1	882	648	1
1	889	652	1
1	897	656	1
1	900	660	1
1	904	664	1
1	909	668	1
1	914	672	1
1	919	676	1
1	922	680	1
1	926	684	1
1	933	688	1
1	938	692	1
1	943	696	1
1	946	700	1
1	952	704	1
1	957	708	1
1	962	712	1
1	967	716	1
1	970	720	1
1	974	724	1
1	979	728	1
1	984	732	1
1	989	736	1
1	992	740	1
1	996	744	1
1	1001	748	1
1	1006	752	1
1	1011	756	1
1	1014	760	1
1	1018	764	1
1	1023	768	1
1	1028	772	1
1	1033	776	1
1	1036	780	1
1	1041	784	1
1	1048	788	1
1	1056	792	1
1	1061	796	1
1	1064	800	1
1	1068	804	1
1	1074	808	1
1	1080	812	1
1	1086	816	1
1	1089	820	1
1	1095	824	1
1	1103	828	1
1	1108	832	1
1	1113	836	1
1	1116	840	1
1	1120	844	1
1	1125	848	1
1	1131	852	1
1	1137	856	1
1	1140	860	1
1	1145	864	1
1	1152	868	1
1	1159	872	1
1	1166	876	1
1	1169	880	1
1	1175	884	1
1	1181	888	1
1	1186	892	1
1	1192	896	1
1	1195	900	1
1	1201	904	1
1	1208	908	1
1	1215	912	1
1	1222	916	1
1	1225	920	1
1	1231	924	1
1	1238	928	1
1	1245	932	1
1	1252	936	1
1	1255	940	1
1	1261	944	1
1	1268	948	1
1	1275	952	1
1	1282	956	1
1	1285	960	1
1	1291	964	1
1	1298	968	1
1	1305	972	1
1	1312	976	1
1	1315	980	1
1	1321	984	1
1	1328	988	1
1	1334	992	1
1	1340	996	1
1	1343	1000	1
1	1349	1004	1
1	1357	1008	1
1	1362	1012	1
1	1367	1016	1
1	1370	1020	1
1	1374	1024	1
1	1379	1028	1
1	1385	1032	1
1	1392	1036	1
1	1395	1040	1
1	1401	1044	1
1	1408	1048	1
1	1414	1052	1
1	1420	1056	1
1	1423	1060	1
1	1429	1064	1
1	1436	1068	1
1	1443	1072	1
1	1449	1076	1
1	1452	1080	1
1	1456	1084	1
1	1461	1088	1
1	1467	1092	1
1	1474	1096	1
1	1477	1100	1
1	1483	1104	1
1	1490	1108	1
1	1497	1112	1
1	1504	1116	1
1	1507	1120	1
1	1513	1124	1
1	1519	1128	1
1	1525	1132	1
1	1531	1136	1
1	1534	1140	1
1	1539	1144	1
1	1546	1148	1
1	1552	1152	1
1	1558	1156	1
1	1561	1160	1
1	1567	1164	1
1	1574	1168	1
1	1580	1172	1
1	1586	1176	1
1	1589	1180	1
1	1595	1184	1
1	1601	1188	1
1	1607	1192	1
1	1613	1196	1
1	1616	1200	1
1	1621	1204	1
1	1627	1208	1
1	1633	1212	1
1	1639	1216	1
1	1642	1220	1
1	1647	1224	1
1	1653	1228	1
1	1659	1232	1
1	1666	1236	1
1	1669	1240	1
1	1675	1244	1
1	1682	1248	1
1	1689	1252	1
1	1696	1256	1
1	1699	1260	1
1	1705	1264	1
1	1712	1268	1
1	1719	1272	1
1	1726	1276	1
1	1729	1280	1
1	1734	1284	1
1	1740	1288	1
1	1747	1292	1
1	1753	1296	1
1	1756	1300	1
1	1760	1304	1
1	1766	1308	1
1	1773	1312	1
1	1780	1316	1
1	1783	1320	1
1	1789	1324	1
1	1796	1328	1
1	1803	1332	1
1	1809	1336	1
1	1812	1340	1
1	1817	1344	1
1	1824	1348	1
1	1831	1352	1
1	1837	1356	1
1	1840	1360	1
1	1845	1364	1
1	1852	1368	1
1	1859	1372	1
1	1865	1376	1
1	1868	1380	1
1	1872	1384	1
1	1877	1388	1
1	1883	1392	1
1	1889	1396	1
1	1892	1400	1
1	1897	1404	1
1	1904	1408	1
1	1911	1412	1
1	1917	1416	1
1	1920	1420	1
1	1925	1424	1
1	1932	1428	1
1	1939	1432	1
1	1946	1436	1
1	1949	1440	1
1	1955	1444	1
1	1962	1448	1
1	1969	1452	1
1	1975	1456	1
1	1978	1460	1
1	1983	1464	1
1	1989	1468	1
1	1995	1472	1
1	2002	1476	1
1	2005	1480	1
1	2011	1484	1
1	2018	1488	1
1	2025	1492	1
1	2032	1496	1
1	2035	1500	1
1	2041	1504	1
1	2048	1508	1
1	2055	1512	1
1	2062	1516	1
1	2065	1520	1
1	2071	1524	1
1	2078	1528	1
1	2085	1532	1
1	2092	1536	1
1	2095	1540	1
1	2101	1544	1
1	2108	1548	1
1	2115	1552	1
1	2121	1556	1
1	2124	1560	1
1	2129	1564	1
1	2135	1568	1
1	2141	1572	1
1	2148	1576	1
1	2151	1580	1
1	2157	1584	1
1	2164	1588	1
1	2171	1592	1
1	2178	1596	1
1	2181	1600	1
1	2186	1604	1
1	2192	1608	1
1	2199	1612	1
1	2206	1616	1
1	2209	1620	1
1	2216	1624	1
1	2221	1628	1
1	2226	1632	1
1	2231	1636	1
1	2234	1640	1
1	2239	1644	1
1	2246	1648	1
1	2253	1652	1
1	2260	1656	1
1	2263	1660	1
1	2269	1664	1
1	2276	1668	1
1	2282	1672	1
1	2288	1676	1
1	2291	1680	1
1	2297	1684	1
1	2303	1688	1
1	2309	1692	1
1	2316	1696	1
1	2319	1700	1
1	2325	1704	1
1	2332	1708	1
1	2339	1712	1
1	2346	1716	1
1	2349	1720	1
1	2355	1724	1
1	2362	1728	1
1	2368	1732	1
1	2374	1736	1
1	2377	1740	1
1	2383	1744	1
1	2390	1748	1
1	2397	1752	1
1	2403	1756	1
1	2406	1760	1
1	2410	1764	1
1	2416	1768	1
1	2423	1772	1
1	2431	1776	1
1	2434	1780	1
1	2438	1784	1
1	2443	1788	1
1	2449	1792	1
1	2456	1796	1
1	2459	1800	1
1	2465	1804	1
1	2472	1808	1
1	2478	1812	1
1	2484	1816	1
1	2487	1820	1
1	2493	1824	1
1	2499	1828	1
1	2505	1832	1
1	2512	1836	1
1	2515	1840	1
1	2521	1844	1
1	2528	1848	1
1	2535	1852	1
1	2542	1856	1
1	2545	1860	1
1	2551	1864	1
1	2557	1868	1
1	2563	1872	1
1	2570	1876	1
1	2573	1880	1
1	2578	1884	1
1	2584	1888	1
1	2591	1892	1
1	2598	1896	1
1	2601	1900	1
1	2606	1904	1
1	2612	1908	1
1	2619	1912	1
1	2626	1916	1
1	2629	1920	1
1	2634	1924	1
1	2640	1928	1
1	2647	1932	1
1	2654	1936	1
1	2657	1940	1
1	2662	1944	1
1	2667	1948	1
1	2673	1952	1
1	2680	1956	1
1	2683	1960	1
1	2689	1964	1
1	2696	1968	1
1	2703	1972	1
1	2710	1976	1
1	2713	1980	1
1	2719	1984	1
1	2726	1988	1
1	2732	1992	1
1	2737	1996	1
1	2740	2000	1
1	2745	2004	1
1	2752	2008	1
1	2759	2012	1
1	2766	2016	1
1	2769	2020	1
1	2775	2024	1
1	2782	2028	1
1	2789	2032	1
1	2796	2036	1
1	2799	2040	1
1	2805	2044	1
1	2811	2048	1
1	2816	2052	1
1	2822	2056	1
1	2825	2060	1
1	2830	2064	1
1	2836	2068	1
1	2842	2072	1
1	2848	2076	1
1	2851	2080	1
1	2857	2084	1
1	2864	2088	1
1	2871	2092	1
1	2878	2096	1
1	2881	2100	1
1	2887	2104	1
1	2894	2108	1
1	2901	2112	1
1	2907	2116	1
1	2910	2120	1
1	2915	2124	1
1	2922	2128	1
1	2929	2132	1
1	2936	2136	1
1	2939	2140	1
1	2945	2144	1
1	2952	2148	1
1	2959	2152	1
1	2966	2156	1
1	2969	2160	1
1	2975	2164	1
1	2981	2168	1
1	2987	2172	1
1	2994	2176	1
1	2997	2180	1
1	3003	2184	1
1	3010	2188	1
1	3017	2192	1
1	3024	2196	1
1	3027	2200	1
1	3033	2204	1
1	3040	2208	1
1	3047	2212	1
1	3054	2216	1
1	3057	2220	1
1	3063	2224	1
1	3070	2228	1
1	3077	2232	1
1	3084	2236	1
1	3087	2240	1
1	3093	2244	1
1	3099	2248	1
1	3104	2252	1
1	3110	2256	1
1	3113	2260	1
1	3119	2264	1
1	3126	2268	1
1	3133	2272	1
1	3140	2276	1
1	3143	2280	1
1	3149	2284	1
1	3155	2288	1
1	3161	2292	1
1	3168	2296	1
1	3171	2300	1
1	3177	2304	1
1	3184	2308	1
1	3191	2312	1
1	3198	2316	1
1	3201	2320	1
1	3207	2324	1
1	3214	2328	1
1	3221	2332	1
1	3227	2336	1
1	3230	2340	1
1	3235	2344	1
1	3241	2348	1
1	3247	2352	1
1	3254	2356	1
1	3257	2360	1
1	3263	2364	1
1	3270	2368	1
1	3277	2372	1
1	3284	2376	1
1	3287	2380	1
1	3293	2384	1
1	3300	2388	1
1	3306	2392	1
1	3312	2396	1
1	3315	2400	1
1	3321	2404	1
1	3328	2408	1
1	3335	2412	1
1	3342	2416	1
1	3345	2420	1
1	3351	2424	1
1	3358	2428	1
1	3364	2432	1
1	3370	2436	1
1	3373	2440	1
1	3378	2444	1
1	3383	2448	1
1	3389	2452	1
1	3396	2456	1
1	3399	2460	1
1	3405	2464	1
1	3412	2468	1
1	3418	2472	1
1	3423	2476	1
1	3426	2480	1
1	3430	2484	1
1	3436	2488	1
1	3442	2492	1
1	3448	2496	1
1	3451	2500	1
1	3457	2504	1
1	3464	2508	1
1	3471	2512	1
1	3478	2516	1
1	3481	2520	1
1	3487	2524	1
1	3494	2528	1
1	3501	2532	1
1	3508	2536	1
1	3511	2540	1
1	3517	2544	1
1	3524	2548	1
1	3531	2552	1
1	3537	2556	1
1	3540	2560	1
1	3545	2564	1
1	3552	2568	1
1	3559	2572	1
1	3566	2576	1
1	3569	2580	1
1	3575	2584	1
1	3582	2588	1
1	3589	2592	1
1	3596	2596	1
1	3599	2600	1
1	3605	2604	1
1	3612	2608	1
1	3618	2612	1
1	3624	2616	1
1	3627	2620	1
1	3633	2624	1
1	3640	2628	1
1	3647	2632	1
1	3653	2636	1
1	3656	2640	1
1	3660	2644	1
1	3666	2648	1
1	3673	2652	1
1	3679	2656	1
1	3682	2660	1
1	3687	2664	1
1	3694	2668	1
1	3700	2672	1
1	3706	2676	1
1	3709	2680	1
1	3715	2684	1
1	3722	2688	1
1	3728	2692	1
1	3734	2696	1
1	3737	2700	1
1	3743	2704	1
1	3750	2708	1
1	3757	2712	1
1	3764	2716	1
1	3767	2720	1
1	3773	2724	1
1	3780	2728	1
1	3787	2732	1
1	3794	2736	1
1	3797	2740	1
1	3803	2744	1
1	3809	2748	1
1	3815	2752	1
1	3822	2756	1
1	3825	2760	1
1	3831	2764	1
1	3838	2768	1
1	3845	2772	1
1	3852	2776	1
1	3855	2780	1
1	3861	2784	1
1	3868	2788	1
1	3875	2792	1
1	3882	2796	1
1	3885	2800	1
1	3891	2804	1
1	3897	2808	1
1	3903	2812	1
1	3910	2816	1
1	3913	2820	1
1	3919	2824	1
1	3926	2828	1
1	3933	2832	1
1	3940	2836	1
1	3943	2840	1
1	3949	2844	1
1	3956	2848	1
1	3963	2852	1
1	3970	2856	1
1	3973	2860	1
1	3979	2864	1
1	3986	2868	1
1	3993	2872	1
1	3999	2876	1
1	4002	2880	1
1	4007	2884	1
1	4014	2888	1
1	4021	2892	1
1	4028	2896	1
1	4031	2900	1
1	4037	2904	1
1	4044	2908	1
1	4051	2912	1
1	4058	2916	1
1	4061	2920	1
1	4067	2924	1
1	4074	2928	1
1	4081	2932	1
1	4087	2936	1
1	4090	2940	1
1	4095	2944	1
1	4102	2948	1
1	4109	2952	1
1	4115	2956	1
1	4118	2960	1
1	4123	2964	1
1	4130	2968	1
1	4137	2972	1
1	4143	2976	1
1	4146	2980	1
1	4150	2984	1
1	4156	2988	1
1	4163	2992	1
1	4170	2996	1
1	4173	3000	1
1	4179	3004	1
1	4185	3008	1
1	4190	3012	1
1	4196	3016	1
1	4199	3020	1
1	4204	3024	1
1	4209	3028	1
1	4215	3032	1
1	4222	3036	1
1	4225	3040	1
1	4231	3044	1
1	4238	3048	1
1	4245	3052	1
1	4252	3056	1
1	4255	3060	1
1	4260	3064	1
1	4265	3068	1
1	4270	3072	1
1	4276	3076	1
1	4279	3080	1
1	4285	3084	1
1	4291	3088	1
1	4297	3092	1
1	4303	3096	1
1	4306	3100	1
1	4311	3104	1
1	4318	3108	1
1	4325	3112	1
1	4332	3116	1
1	4335	3120	1
1	4341	3124	1
1	4347	3128	1
1	4353	3132	1
1	4360	3136	1
1	4363	3140	1
1	4369	3144	1
1	4376	3148	1
1	4383	3152	1
1	4390	3156	1
1	4393	3160	1
1	4399	3164	1
1	4405	3168	1
1	4410	3172	1
1	4416	3176	1
1	4419	3180	1
1	4425	3184	1
1	4432	3188	1
1	4439	3192	1
1	4446	3196	1
1	4449	3200	1
1	4455	3204	1
1	4462	3208	1
1	4469	3212	1
1	4476	3216	1
1	4479	3220	1
1	4485	3224	1
1	4491	3228	1
1	4496	3232	1
1	4501	3236	1
1	4504	3240	1
1	4509	3244	1
1	4516	3248	1
1	4523	3252	1
1	4529	3256	1
1	4532	3260	1
1	4537	3264	1
1	4544	3268	1
1	4551	3272	1
1	4558	3276	1
1	4561	3280	1
1	4567	3284	1
1	4574	3288	1
1	4582	3292	1
1	4587	3296	1
1	4590	3300	1
1	4594	3304	1
1	4599	3308	1
1	4604	3312	1
1	4610	3316	1
1	4613	3320	1
1	4620	3324	1
1	4625	3328	1
1	4630	3332	1
1	4636	3336	1
1	4639	3340	1
1	4645	3344	1
1	4652	3348	1
1	4659	3352	1
1	4667	3356	1
1	4670	3360	1
1	4674	3364	1
1	4679	3368	1
1	4684	3372	1
1	4691	3376	1
1	4694	3380	1
1	4698	3384	1
1	4703	3388	1
1	4708	3392	1
1	4713	3396	1
1	4716	3400	1
1	4720	3404	1
1	4725	3408	1
1	4730	3412	1
1	4735	3416	1
1	4738	3420	1
1	4742	3424	1
1	4747	3428	1
1	4752	3432	1
1	4758	3436	1
1	4761	3440	1
1	4766	3444	1
1	4771	3448	1
1	4777	3452	1
1	4784	3456	1
1	4787	3460	1
1	4793	3464	1
1	4800	3468	1
1	4807	3472	1
1	4814	3476	1
1	4817	3480	1
1	4823	3484	1
1	4829	3488	1
1	4835	3492	1
1	4841	3496	1
1	4844	3500	1
1	4849	3504	1
1	4856	3508	1
1	4863	3512	1
1	4870	3516	1
1	4873	3520	1
1	4879	3524	1
1	4885	3528	1
1	4891	3532	1
1	4898	3536	1
1	4901	3540	1
1	4908	3544	1
1	4913	3548	1
1	4918	3552	1
1	4923	3556	1
1	4926	3560	1
1	4930	3564	1
1	4935	3568	1
1	4940	3572	1
1	4945	3576	1
1	4948	3580	1
1	4952	3584	1
1	4958	3588	1
1	4965	3592	1
1	4972	3596	1
1	4975	3600	1
2	3	5	0
2	10	10	0
2	15	15	0
2	20	20	0
2	27	25	0
2	32	30	0
2	38	35	1
2	46	40	0
2	53	45	0
2	58	50	0
2	63	55	0
2	68	60	0
2	76	65	1
2	84	70	0
2	89	75	0
2	94	80	0
2	101	85	0
2	106	90	0
2	112	95	1
2	119	100	1
2	128	105	1
2	135	110	1
2	142	115	1
2	149	120	1
2	159	125	0
2	164	130	0
2	169	135	0
2	174	140	0
2	182	145	1
2	189	150	1
2	196	155	1
2	204	160	0
2	211	165	0
2	216	170	0
2	221	175	0
2	226	180	0
2	233	185	0
2	239	190	1
2	246	195	1
2	253	200	1
2	262	205	1
2	268	210	0
2	274	215	1
2	281	220	1
2	290	225	1
2	296	230	0
2	302	235	1
2	308	240	0
2	315	245	0
2	321	250	1
2	328	255	1
2	334	260	0
2	342	265	1
2	349	270	1
2	356	275	1
2	363	280	1
2	372	285	1
2	379	290	1
2	386	295	1
2	393	300	1
2	401	305	0
2	407	310	1
2	415	315	0
2	420	320	0
2	427	325	0
2	432	330	0
2	437	335	0
2	443	340	1
2	452	345	1
2	459	350	1
2	466	355	1
2	472	360	0
2	480	365	1
2	487	370	1
2	494	375	1
2	501	380	1
2	510	385	1
2	517	390	1
2	524	395	1
2	531	400	1
2	540	405	1
2	546	410	0
2	551	415	0
2	557	420	1
2	566	425	1
2	573	430	1
2	580	435	1
2	587	440	1
2	595	445	0
2	601	450	1
2	608	455	1
2	615	460	1
2	624	465	1
2	631	470	1
2	638	475	1
2	645	480	1
2	654	485	1
2	661	490	1
2	668	495	1
2	675	500	1
2	684	505	1
2	691	510	1
2	698	515	1
2	705	520	1
2	714	525	1
2	721	530	1
2	728	535	1
2	735	540	1
2	744	545	1
2	751	550	1
2	758	555	1
2	764	560	0
2	772	565	1
2	779	570	1
2	786	575	1
2	793	580	1
2	802	585	1
2	808	590	0
2	814	595	1
2	820	600	0
2	827	605	0
2	833	610	1
2	839	615	0
2	844	620	0
2	852	625	1
2	860	630	0
2	865	635	0
2	870	640	0
2	877	645	0
2	883	650	1
2	890	655	1
2	898	660	0
2	905	665	0
2	910	670	0
2	915	675	0
2	920	680	0
2	927	685	0
2	934	690	0
2	939	695	0
2	944	700	0
2	953	705	0
2	958	710	0
2	963	715	0
2	968	720	0
2	975	725	0
2	980	730	0
2	985	735	0
2	990	740	0
2	997	745	0
2	1002	750	0
2	1007	755	0
2	1012	760	0
2	1019	765	0
2	1024	770	0
2	1029	775	0
2	1034	780	0
2	1042	785	1
2	1049	790	1
2	1057	795	0
2	1062	800	0
2	1069	805	0
2	1075	810	1
2	1081	815	0
2	1087	820	1
2	1096	825	1
2	1104	830	0
2	1109	835	0
2	1114	840	0
2	1121	845	0
2	1126	850	0
2	1132	855	1
2	1138	860	0
2	1146	865	1
2	1153	870	1
2	1160	875	1
2	1167	880	1
2	1176	885	1
2	1182	890	0
2	1187	895	0
2	1193	900	1
2	1202	905	1
2	1209	910	1
2	1216	915	1
2	1223	920	1
2	1232	925	1
2	1239	930	1
2	1246	935	1
2	1253	940	1
2	1262	945	1
2	1269	950	1
2	1276	955	1
2	1283	960	1
2	1292	965	1
2	1299	970	1
2	1306	975	1
2	1313	980	1
2	1322	985	1
2	1329	990	1
2	1335	995	0
2	1341	1000	1
2	1350	1005	1
2	1358	1010	0
2	1363	1015	0
2	1368	1020	0
2	1375	1025	0
2	1380	1030	0
2	1386	1035	1
2	1393	1040	1
2	1402	1045	1
2	1409	1050	1
2	1415	1055	0
2	1421	1060	1
2	1430	1065	1
2	1437	1070	1
2	1444	1075	1
2	1450	1080	0
2	1457	1085	0
2	1462	1090	0
2	1468	1095	1
2	1475	1100	1
2	1484	1105	1
2	1491	1110	1
2	1498	1115	1
2	1505	1120	1
2	1514	1125	1
2	1520	1130	0
2	1526	1135	1
2	1532	1140	0
2	1540	1145	1
2	1547	1150	1
2	1553	1155	0
2	1559	1160	1
2	1568	1165	1
2	1575	1170	1
2	1581	1175	0
2	1587	1180	1
2	1596	1185	1
2	1602	1190	0
2	1608	1195	1
2	1614	1200	0
2	1622	1205	1
2	1628	1210	0
2	1634	1215	1
2	1640	1220	0
2	1648	1225	1
2	1654	1230	0
2	1660	1235	1
2	1667	1240	1
2	1676	1245	1
2	1683	1250	1
2	1690	1255	1
2	1697	1260	1
2	1706	1265	1
2	1713	1270	1
2	1720	1275	1
2	1727	1280	1
2	1735	1285	0
2	1741	1290	1
2	1748	1295	1
2	1754	1300	0
2	1761	1305	0
2	1767	1310	1
2	1774	1315	1
2	1781	1320	1
2	1790	1325	1
2	1797	1330	1
2	1804	1335	1
2	1810	1340	0
2	1818	1345	1
2	1825	1350	1
2	1832	1355	1
2	1838	1360	0
2	1846	1365	1
2	1853	1370	1
2	1860	1375	1
2	1866	1380	0
2	1873	1385	0
2	1878	1390	0
2	1884	1395	1
2	1890	1400	0
2	1898	1405	1
2	1905	1410	1
2	1912	1415	1
2	1918	1420	0
2	1926	1425	1
2	1933	1430	1
2	1940	1435	1
2	1947	1440	1
2	1956	1445	1
2	1963	1450	1
2	1970	1455	1
2	1976	1460	0
2	1984	1465	1
2	1990	1470	0
2	1996	1475	1
2	2003	1480	1
2	2012	1485	1
2	2019	1490	1
2	2026	1495	1
2	2033	1500	1
2	2042	1505	1
2	2049	1510	1
2	2056	1515	1
2	2063	1520	1
2	2072	1525	1
2	2079	1530	1
2	2086	1535	1
2	2093	1540	1
2	2102	1545	1
2	2109	1550	1
2	2116	1555	1
2	2122	1560	0
2	2130	1565	1
2	2136	1570	0
2	2142	1575	1
2	2149	1580	1
2	2158	1585	1
2	2165	1590	1
2	2172	1595	1
2	2179	1600	1
2	2187	1605	0
2	2193	1610	1
2	2200	1615	1
2	2207	1620	1
2	2217	1625	0
2	2222	1630	0
2	2227	1635	0
2	2232	1640	0
2	2240	1645	1
2	2247	1650	1
2	2254	1655	1
2	2261	1660	1
2	2270	1665	1
2	2277	1670	1
2	2283	1675	0
2	2289	1680	1
2	2298	1685	1
2	2304	1690	0
2	2310	1695	1
2	2317	1700	1
2	2326	1705	1
2	2333	1710	1
2	2340	1715	1
2	2347	1720	1
2	2356	1725	1
2	2363	1730	1
2	2369	1735	0
2	2375	1740	1
2	2384	1745	1
2	2391	1750	1
2	2398	1755	1
2	2404	1760	0
2	2411	1765	0
2	2417	1770	1
2	2424	1775	1
2	2432	1780	0
2	2439	1785	0
2	2444	1790	0
2	2450	1795	1
2	2457	1800	1
2	2466	1805	1
2	2473	1810	1
2	2479	1815	0
2	2485	1820	1
2	2494	1825	1
2	2500	1830	0
2	2506	1835	1
2	2513	1840	1
2	2522	1845	1
2	2529	1850	1
2	2536	1855	1
2	2543	1860	1
2	2552	1865	1
2	2558	1870	0
2	2564	1875	1
2	2571	1880	1
2	2579	1885	0
2	2585	1890	1
2	2592	1895	1
2	2599	1900	1
2	2607	1905	0
2	2613	1910	1
2	2620	1915	1
2	2627	1920	1
2	2635	1925	0
2	2641	1930	1
2	2648	1935	1
2	2655	1940	1
2	2663	1945	0
2	2668	1950	0
2	2674	1955	1
2	2681	1960	1
2	2690	1965	1
2	2697	1970	1
2	2704	1975	1
2	2711	1980	1
2	2720	1985	1
2	2727	1990	1
2	2733	1995	0
2	2738	2000	0
2	2746	2005	1
2	2753	2010	1
2	2760	2015	1
2	2767	2020	1
2	2776	2025	1
2	2783	2030	1
2	2790	2035	1
2	2797	2040	1
2	2806	2045	1
2	2812	2050	0
2	2817	2055	0
2	2823	2060	1
2	2831	2065	0
2	2837	2070	1
2	2843	2075	0
2	2849	2080	1
2	2858	2085	1
2	2865	2090	1
2	2872	2095	1
2	2879	2100	1
2	2888	2105	1
2	2895	2110	1
2	2902	2115	1
2	2908	2120	0
2	2916	2125	1
2	2923	2130	1
2	2930	2135	1
2	2937	2140	1
2	2946	2145	1
2	2953	2150	1
2	2960	2155	1
2	2967	2160	1
2	2976	2165	1
2	2982	2170	0
2	2988	2175	1
2	2995	2180	1
2	3004	2185	1
2	3011	2190	1
2	3018	2195	1
2	3025	2200	1
2	3034	2205	1
2	3041	2210	1
2	3048	2215	1
2	3055	2220	1
2	3064	2225	1
2	3071	2230	1
2	3078	2235	1
2	3085	2240	1
2	3094	2245	1
2	3100	2250	0
2	3105	2255	0
2	3111	2260	1
2	3120	2265	1
2	3127	2270	1
2	3134	2275	1
2	3141	2280	1
2	3150	2285	1
2	3156	2290	0
2	3162	2295	1
2	3169	2300	1
2	3178	2305	1
2	3185	2310	1
2	3192	2315	1
2	3199	2320	1
2	3208	2325	1
2	3215	2330	1
2	3222	2335	1
2	3228	2340	0
2	3236	2345	1
2	3242	2350	0
2	3248	2355	1
2	3255	2360	1
2	3264	2365	1
2	3271	2370	1
2	3278	2375	1
2	3285	2380	1
2	3294	2385	1
2	3301	2390	1
2	3307	2395	0
2	3313	2400	1
2	3322	2405	1
2	3329	2410	1
2	3336	2415	1
2	3343	2420	1
2	3352	2425	1
2	3359	2430	1
2	3365	2435	0
2	3371	2440	1
2	3379	2445	0
2	3384	2450	0
2	3390	2455	1
2	3397	2460	1
2	3406	2465	1
2	3413	2470	1
2	3419	2475	0
2	3424	2480	0
2	3431	2485	0
2	3437	2490	1
2	3443	2495	0
2	3449	2500	1
2	3458	2505	1
2	3465	2510	1
2	3472	2515	1
2	3479	2520	1
2	3488	2525	1
2	3495	2530	1
2	3502	2535	1
2	3509	2540	1
2	3518	2545	1
2	3525	2550	1
2	3532	2555	1
2	3538	2560	0
2	3546	2565	1
2	3553	2570	1
2	3560	2575	1
2	3567	2580	1
2	3576	2585	1
2	3583	2590	1
2	3590	2595	1
2	3597	2600	1
2	3606	2605	1
2	3613	2610	1
2	3619	2615	0
2	3625	2620	1
2	3634	2625	1
2	3641	2630	1
2	3648	2635	1
2	3654	2640	0
2	3661	2645	0
2	3667	2650	1
2	3674	2655	1
2	3680	2660	0
2	3688	2665	1
2	3695	2670	1
2	3701	2675	0
2	3707	2680	1
2	3716	2685	1
2	3723	2690	1
2	3729	2695	0
2	3735	2700	1
2	3744	2705	1
2	3751	2710	1
2	3758	2715	1
2	3765	2720	1
2	3774	2725	1
2	3781	2730	1
2	3788	2735	1
2	3795	2740	1
2	3804	2745	1
2	3810	2750	0
2	3816	2755	1
2	3823	2760	1
2	3832	2765	1
2	3839	2770	1
2	3846	2775	1
2	3853	2780	1
2	3862	2785	1
2	3869	2790	1
2	3876	2795	1
2	3883	2800	1
2	3892	2805	1
2	3898	2810	0
2	3904	2815	1
2	3911	2820	1
2	3920	2825	1
2	3927	2830	1
2	3934	2835	1
2	3941	2840	1
2	3950	2845	1
2	3957	2850	1
2	3964	2855	1
2	3971	2860	1
2	3980	2865	1
2	3987	2870	1
2	3994	2875	1
2	4000	2880	0
2	4008	2885	1
2	4015	2890	1
2	4022	2895	1
2	4029	2900	1
2	4038	2905	1
2	4045	2910	1
2	4052	2915	1
2	4059	2920	1
2	4068	2925	1
2	4075	2930	1
2	4082	2935	1
2	4088	2940	0
2	4096	2945	1
2	4103	2950	1
2	4110	2955	1
2	4116	2960	0
2	4124	2965	1
2	4131	2970	1
2	4138	2975	1
2	4144	2980	0
2	4151	2985	0
2	4157	2990	1
2	4164	2995	1
2	4171	3000	1
2	4180	3005	1
2	4186	3010	0
2	4191	3015	0
2	4197	3020	1
2	4205	3025	0
2	4210	3030	0
2	4216	3035	1
2	4223	3040	1
2	4232	3045	1
2	4239	3050	1
2	4246	3055	1
2	4253	3060	1
2	4261	3065	0
2	4266	3070	0
2	4271	3075	0
2	4277	3080	1
2	4286	3085	1
2	4292	3090	0
2	4298	3095	1
2	4304	3100	0
2	4312	3105	1
2	4319	3110	1
2	4326	3115	1
2	4333	3120	1
2	4342	3125	1
2	4348	3130	0
2	4354	3135	1
2	4361	3140	1
2	4370	3145	1
2	4377	3150	1
2	4384	3155	1
2	4391	3160	1
2	4400	3165	1
2	4406	3170	0
2	4411	3175	0
2	4417	3180	1
2	4426	3185	1
2	4433	3190	1
2	4440	3195	1
2	4447	3200	1
2	4456	3205	1
2	4463	3210	1
2	4470	3215	1
2	4477	3220	1
2	4486	3225	1
2	4492	3230	0
2	4497	3235	0
2	4502	3240	0
2	4510	3245	1
2	4517	3250	1
2	4524	3255	1
2	4530	3260	0
2	4538	3265	1
2	4545	3270	1
2	4552	3275	1
2	4559	3280	1
2	4568	3285	1
2	4575	3290	1
2	4583	3295	0
2	4588	3300	0
2	4595	3305	0
2	4600	3310	0
2	4605	3315	0
2	4611	3320	1
2	4621	3325	0
2	4626	3330	0
2	4631	3335	0
2	4637	3340	1
2	4646	3345	1
2	4653	3350	1
2	4660	3355	1
2	4668	3360	0
2	4675	3365	0
2	4680	3370	0
2	4685	3375	0
2	4692	3380	0
2	4699	3385	0
2	4704	3390	0
2	4709	3395	0
2	4714	3400	0
2	4721	3405	0
2	4726	3410	0
2	4731	3415	0
2	4736	3420	0
2	4743	3425	0
2	4748	3430	0
2	4753	3435	0
2	4759	3440	1
2	4767	3445	0
2	4772	3450	0
2	4778	3455	1
2	4785	3460	1
2	4794	3465	1
2	4801	3470	1
2	4808	3475	1
2	4815	3480	1
2	4824	3485	1
2	4830	3490	0
2	4836	3495	1
2	4842	3500	0
2	4850	3505	1
2	4857	3510	1
2	4864	3515	1
2	4871	3520	1
2	4880	3525	1
2	4886	3530	0
2	4892	3535	1
2	4899	3540	1
2	4909	3545	0
2	4914	3550	0
2	4919	3555	0
2	4924	3560	0
2	4931	3565	0
2	4936	3570	0
2	4941	3575	0
2	4946	3580	0
2	4953	3585	0
2	4959	3590	1
2	4966	3595	1
2	4973	3600	1
3	25	24	1
3	30	28	1
3	36	32	1
3	47	40	1
3	51	44	1
3	56	48	1
3	61	52	1
3	66	56	1
3	69	60	1
3	74	64	1
3	82	68	1
3	87	72	1
3	92	76	1
3	95	80	1
3	99	84	1
3	104	88	1
3	110	92	1
3	117	96	1
3	120	100	1
3	126	104	1
3	133	108	1
3	140	112	1
3	147	116	1
3	150	120	1
3	157	124	1
3	162	128	1
3	167	132	1
3	172	136	1
3	175	140	1
3	180	144	1
3	187	148	1
3	194	152	1
3	202	156	1
3	205	160	1
3	209	164	1
3	214	168	1
3	219	172	1
3	224	176	1
3	227	180	1
3	231	184	1
3	237	188	1
3	244	192	1
3	251	196	1
3	254	200	1
3	260	204	1
3	266	208	1
3	272	212	1
3	279	216	1
3	282	220	1
3	288	224	1
3	294	228	1
3	300	232	1
3	306	236	1
3	309	240	1
3	313	244	1
3	319	248	1
3	326	252	1
3	332	256	1
3	335	260	1
3	340	264	1
3	347	268	1
3	354	272	1
3	361	276	1
3	364	280	1
3	370	284	1
3	377	288	1
3	384	292	1
3	391	296	1
3	394	300	1
3	399	304	1
3	405	308	1
3	413	312	1
3	418	316	1
3	421	320	1
3	425	324	1
3	430	328	1
3	435	332	1
3	441	336	1
3	444	340	1
3	450	344	1
3	457	348	1
3	464	352	1
3	470	356	1
3	473	360	1
3	478	364	1
3	485	368	1
3	492	372	1
3	499	376	1
3	502	380	1
3	508	384	1
3	515	388	1
3	522	392	1
3	529	396	1
3	532	400	1
3	538	404	1
3	544	408	1
3	549	412	1
3	555	416	1
3	558	420	1
3	564	424	1
3	571	428	1
3	578	432	1
3	585	436	1
3	588	440	1
3	593	444	1
3	599	448	1
3	606	452	1
3	613	456	1
3	616	460	1
3	622	464	1
3	629	468	1
3	636	472	1
3	643	476	1
3	646	480	1
3	652	484	1
3	659	488	1
3	666	492	1
3	673	496	1
3	676	500	1
3	682	504	1
3	689	508	1
3	696	512	1
3	703	516	1
3	706	520	1
3	712	524	1
3	719	528	1
3	726	532	1
3	733	536	1
3	736	540	1
3	742	544	1
3	749	548	1
3	756	552	1
3	762	556	1
3	765	560	1
3	770	564	1
3	777	568	1
3	784	572	1
3	791	576	1
3	794	580	1
3	800	584	1
3	806	588	1
3	812	592	1
3	818	596	1
3	821	600	1
3	825	604	1
3	831	608	1
3	842	616	1
3	845	620	1
3	850	624	1
3	863	632	1
3	868	636	1
3	871	640	1
3	875	644	1
3	881	648	1
3	896	656	1
3	899	660	1
3	903	664	1
3	908	668	1
3	913	672	1
3	918	676	1
3	921	680	1
3	925	684	1
3	932	688	1
3	937	692	1
3	942	696	1
3	945	700	1
3	951	704	1
3	956	708	1
3	961	712	1
3	966	716	1
3	969	720	1
3	973	724	1
3	978	728	1
3	983	732	1
3	988	736	1
3	991	740	1
3	995	744	1
3	1000	748	1
3	1005	752	1
3	1010	756	1
3	1013	760	1
3	1017	764	1
3	1022	768	1
3	1027	772	1
3	1032	776	1
3	1035	780	1
3	1040	784	1
3	1060	796	1
3	1063	800	1
3	1067	804	1
3	1073	808	1
3	1085	816	1
3	1088	820	1
3	1107	832	1
3	1112	836	1
3	1115	840	1
3	1119	844	1
3	1124	848	1
3	1130	852	1
3	1139	860	1
3	1144	864	1
3	1168	880	1
3	1185	892	1
3	1191	896	1
3	1194	900	1
3	1224	920	1
3	1254	940	1
3	1284	960	1
3	1314	980	1
3	1339	996	1
3	1342	1000	1
3	1361	1012	1
3	1366	1016	1
3	1369	1020	1
3	1373	1024	1
3	1378	1028	1
3	1384	1032	1
3	1394	1040	1
3	1419	1056	1
3	1422	1060	1
3	1451	1080	1
3	1455	1084	1
3	1460	1088	1
3	1466	1092	1
3	1476	1100	1
3	1506	1120	1
3	1524	1132	1
3	1533	1140	1
3	1538	1144	1
3	1557	1156	1
3	1560	1160	1
3	1585	1176	1
3	1588	1180	1
3	1606	1192	1
3	1615	1200	1
3	1620	1204	1
3	1632	1212	1
3	1641	1220	1
3	1646	1224	1
3	1658	1232	1
3	1668	1240	1
3	1698	1260	1
3	1728	1280	1
3	1739	1288	1
3	1755	1300	1
3	1759	1304	1
3	1765	1308	1
3	1782	1320	1
3	1811	1340	1
3	1816	1344	1
3	1839	1360	1
3	1844	1364	1
3	1867	1380	1
3	1871	1384	1
3	1876	1388	1
3	1882	1392	1
3	1891	1400	1
3	1896	1404	1
3	1919	1420	1
3	1924	1424	1
3	1948	1440	1
3	1977	1460	1
3	1982	1464	1
3	1994	1472	1
3	2004	1480	1
3	2034	1500	1
3	2064	1520	1
3	2094	1540	1
3	2123	1560	1
3	2128	1564	1
3	2140	1572	1
3	2150	1580	1
3	2180	1600	1
3	2191	1608	1
3	2208	1620	1
3	2220	1628	1
3	2225	1632	1
3	2230	1636	1
3	2233	1640	1
3	2238	1644	1
3	2262	1660	1
3	2287	1676	1
3	2290	1680	1
3	2308	1692	1
3	2318	1700	1
3	2348	1720	1
3	2373	1736	1
3	2376	1740	1
3	2405	1760	1
3	2409	1764	1
3	2415	1768	1
3	2433	1780	1
3	2437	1784	1
3	2442	1788	1
3	2448	1792	1
3	2458	1800	1
3	2483	1816	1
3	2486	1820	1
3	2504	1832	1
3	2514	1840	1
3	2544	1860	1
3	2562	1872	1
3	2572	1880	1
3	2583	1888	1
3	2600	1900	1
3	2611	1908	1
3	2628	1920	1
3	2639	1928	1
3	2656	1940	1
3	2666	1948	1
3	2672	1952	1
3	2682	1960	1
3	2712	1980	1
3	2736	1996	1
3	2739	2000	1
3	2744	2004	1
3	2768	2020	1
3	2798	2040	1
3	2815	2052	1
3	2821	2056	1
3	2824	2060	1
3	2835	2068	1
3	2847	2076	1
3	2850	2080	1
3	2880	2100	1
3	2909	2120	1
3	2914	2124	1
3	2938	2140	1
3	2968	2160	1
3	2986	2172	1
3	2996	2180	1
3	3026	2200	1
3	3056	2220	1
3	3086	2240	1
3	3103	2252	1
3	3109	2256	1
3	3112	2260	1
3	3142	2280	1
3	3160	2292	1
3	3170	2300	1
3	3200	2320	1
3	3229	2340	1
3	3234	2344	1
3	3246	2352	1
3	3256	2360	1
3	3286	2380	1
3	3311	2396	1
3	3314	2400	1
3	3344	2420	1
3	3369	2436	1
3	3372	2440	1
3	3382	2448	1
3	3388	2452	1
3	3398	2460	1
3	3422	2476	1
3	3425	2480	1
3	3429	2484	1
3	3435	2488	1
3	3447	2496	1
3	3450	2500	1
3	3480	2520	1
3	3510	2540	1
3	3539	2560	1
3	3544	2564	1
3	3568	2580	1
3	3598	2600	1
3	3623	2616	1
3	3626	2620	1
3	3655	2640	1
3	3659	2644	1
3	3665	2648	1
3	3681	2660	1
3	3686	2664	1
3	3705	2676	1
3	3708	2680	1
3	3733	2696	1
3	3736	2700	1
3	3766	2720	1
3	3796	2740	1
3	3814	2752	1
3	3824	2760	1
3	3854	2780	1
3	3884	2800	1
3	3902	2812	1
3	3912	2820	1
3	3942	2840	1
3	3972	2860	1
3	4001	2880	1
3	4006	2884	1
3	4030	2900	1
3	4060	2920	1
3	4089	2940	1
3	4094	2944	1
3	4117	2960	1
3	4122	2964	1
3	4145	2980	1
3	4149	2984	1
3	4155	2988	1
3	4172	3000	1
3	4189	3012	1
3	4195	3016	1
3	4198	3020	1
3	4208	3028	1
3	4214	3032	1
3	4224	3040	1
3	4254	3060	1
3	4264	3068	1
3	4269	3072	1
3	4275	3076	1
3	4278	3080	1
3	4296	3092	1
3	4305	3100	1
3	4310	3104	1
3	4334	3120	1
3	4352	3132	1
3	4362	3140	1
3	4392	3160	1
3	4409	3172	1
3	4415	3176	1
3	4418	3180	1
3	4448	3200	1
3	4478	3220	1
3	4495	3232	1
3	4500	3236	1
3	4503	3240	1
3	4508	3244	1
3	4531	3260	1
3	4536	3264	1
3	4560	3280	1
3	4573	3288	1
3	4581	3292	1
3	4586	3296	1
3	4589	3300	1
3	4593	3304	1
3	4598	3308	1
3	4603	3312	1
3	4609	3316	1
3	4612	3320	1
3	4624	3328	1
3	4629	3332	1
3	4635	3336	1
3	4638	3340	1
3	4669	3360	1
3	4673	3364	1
3	4678	3368	1
3	4683	3372	1
3	4690	3376	1
3	4693	3380	1
3	4697	3384	1
3	4702	3388	1
3	4707	3392	1
3	4712	3396	1
3	4715	3400	1
3	4719	3404	1
3	4724	3408	1
3	4729	3412	1
3	4734	3416	1
3	4737	3420	1
3	4741	3424	1
3	4746	3428	1
3	4751	3432	1
3	4757	3436	1
3	4760	3440	1
3	4770	3448	1
3	4776	3452	1
3	4786	3460	1
3	4816	3480	1
3	4834	3492	1
3	4843	3500	1
3	4848	3504	1
3	4872	3520	1
3	4890	3532	1
3	4900	3540	1
3	4912	3548	1
3	4917	3552	1
3	4922	3556	1
3	4925	3560	1
3	4929	3564	1
3	4934	3568	1
3	4939	3572	1
3	4944	3576	1
3	4947	3580	1
3	4951	3584	1
3	4957	3588	1
3	4974	3600	1
4	26	24	1
4	31	28	1
4	37	32	1
4	45	36	1
4	48	40	1
4	52	44	1
4	57	48	1
4	62	52	1
4	67	56	1
4	70	60	1
4	75	64	1
4	88	72	1
4	93	76	1
4	96	80	1
4	100	84	1
4	105	88	1
4	111	92	1
4	121	100	1
4	151	120	1
4	163	128	1
4	168	132	1
4	173	136	1
4	176	140	1
4	181	144	1
4	206	160	1
4	210	164	1
4	215	168	1
4	220	172	1
4	225	176	1
4	228	180	1
4	232	184	1
4	238	188	1
4	255	200	1
4	273	212	1
4	283	220	1
4	301	232	1
4	310	240	1
4	314	244	1
4	320	248	1
4	336	260	1
4	341	264	1
4	365	280	1
4	395	300	1
4	406	308	1
4	419	316	1
4	422	320	1
4	426	324	1
4	431	328	1
4	436	332	1
4	442	336	1
4	445	340	1
4	474	360	1
4	479	364	1
4	503	380	1
4	533	400	1
4	550	412	1
4	556	416	1
4	559	420	1
4	589	440	1
4	600	448	1
4	617	460	1
4	647	480	1
4	677	500	1
4	707	520	1
4	737	540	1
4	766	560	1
4	771	564	1
4	795	580	1
4	813	592	1
4	822	600	1
4	826	604	1
4	832	608	1
4	838	612	1
4	843	616	1
4	846	620	1
4	851	624	1
4	859	628	1
4	864	632	1
4	869	636	1
4	872	640	1
4	876	644	1
4	882	648	1
4	889	652	1
4	900	660	1
4	904	664	1
4	909	668	1
4	914	672	1
4	919	676	1
4	922	680	1
4	926	684	1
4	933	688	1
4	938	692	1
4	943	696	1
4	946	700	1
4	952	704	1
4	957	708	1
4	962	712	1
4	967	716	1
4	970	720	1
4	974	724	1
4	979	728	1
4	984	732	1
4	989	736	1
4	992	740	1
4	996	744	1
4	1001	748	1
4	1006	752	1
4	1011	756	1
4	1014	760	1
4	1018	764	1
4	1023	768	1
4	1028	772	1
4	1033	776	1
4	1036	780	1
4	1041	784	1
4	1048	788	1
4	1056	792	1
4	1061	796	1
4	1064	800	1
4	1068	804	1
4	1074	808	1
4	1080	812	1
4	1086	816	1
4	1089	820	1
4	1095	824	1
4	1103	828	1
4	1108	832	1
4	1113	836	1
4	1116	840	1
4	1120	844	1
4	1125	848	1
4	1131	852	1
4	1137	856	1
4	1140	860	1
4	1145	864	1
4	1152	868	1
4	1159	872	1
4	1166	876	1
4	1169	880	1
4	1175	884	1
4	1181	888	1
4	1186	892	1
4	1192	896	1
4	1195	900	1
4	1201	904	1
4	1208	908	1
4	1215	912	1
4	1222	916	1
4	1225	920	1
4	1231	924	1
4	1238	928	1
4	1245	932	1
4	1252	936	1
4	1255	940	1
4	1261	944	1
4	1268	948	1
4	1275	952	1
4	1282	956	1
4	1285	960	1
4	1291	964	1
4	1298	968	1
4	1305	972	1
4	1312	976	1
4	1315	980	1
4	1321	984	1
4	1328	988	1
4	1334	992	1
4	1340	996	1
4	1343	1000	1
4	1349	1004	1
4	1357	1008	1
4	1362	1012	1
4	1367	1016	1
4	1370	1020	1
4	1374	1024	1
4	1379	1028	1
4	1385	1032	1
4	1392	1036	1
4	1395	1040	1
4	1401	1044	1
4	1408	1048	1
4	1414	1052	1
4	1420	1056	1
4	1423	1060	1
4	1429	1064	1
4	1436	1068	1
4	1443	1072	1
4	1449	1076	1
4	1452	1080	1
4	1456	1084	1
4	1461	1088	1
4	1467	1092	1
4	1474	1096	1
4	1477	1100	1
4	1483	1104	1
4	1490	1108	1
4	1497	1112	1
4	1504	1116	1
4	1507	1120	1
4	1513	1124	1
4	1519	1128	1
4	1525	1132	1
4	1531	1136	1
4	1534	1140	1
4	1539	1144	1
4	1546	1148	1
4	1552	1152	1
4	1558	1156	1
4	1561	1160	1
4	1567	1164	1
4	1574	1168	1
4	1580	1172	1
4	1586	1176	1
4	1589	1180	1
4	1595	1184	1
4	1601	1188	1
4	1607	1192	1
4	1613	1196	1
4	1616	1200	1
4	1621	1204	1
4	1627	1208	1
4	1633	1212	1
4	1639	1216	1
4	1642	1220	1
4	1647	1224	1
4	1653	1228	1
4	1659	1232	1
4	1666	1236	1
4	1669	1240	1
4	1675	1244	1
4	1682	1248	1
4	1689	1252	1
4	1696	1256	1
4	1699	1260	1
4	1705	1264	1
4	1712	1268	1
4	1719	1272	1
4	1726	1276	1
4	1729	1280	1
4	1734	1284	1
4	1740	1288	1
4	1747	1292	1
4	1753	1296	1
4	1756	1300	1
4	1760	1304	1
4	1766	1308	1
4	1773	1312	1
4	1780	1316	1
4	1783	1320	1
4	1789	1324	1
4	1796	1328	1
4	1803	1332	1
4	1809	1336	1
4	1812	1340	1
4	1817	1344	1
4	1824	1348	1
4	1831	1352	1
4	1837	1356	1
4	1840	1360	1
4	1845	1364	1
4	1852	1368	1
4	1859	1372	1
4	1865	1376	1
4	1868	1380	1
4	1872	1384	1
4	1877	1388	1
4	1883	1392	1
4	1889	1396	1
4	1892	1400	1
4	1897	1404	1
4	1904	1408	1
4	1911	1412	1
4	1917	1416	1
4	1920	1420	1
4	1925	1424	1
4	1932	1428	1
4	1939	1432	1
4	1946	1436	1
4	1949	1440	1
4	1955	1444	1
4	1962	1448	1
4	1969	1452	1
4	1975	1456	1
4	1978	1460	1
4	1983	1464	1
4	1989	1468	1
4	1995	1472	1
4	2002	1476	1
4	2005	1480	1
4	2011	1484	1
4	2018	1488	1
4	2025	1492	1
4	2032	1496	1
4	2035	1500	1
4	2041	1504	1
4	2048	1508	1
4	2055	1512	1
4	2062	1516	1
4	2065	1520	1
4	2071	1524	1
4	2078	1528	1
4	2085	1532	1
4	2092	1536	1
4	2095	1540	1
4	2101	1544	1
4	2108	1548	1
4	2115	1552	1
4	2121	1556	1
4	2124	1560	1
4	2129	1564	1
4	2135	1568	1
4	2141	1572	1
4	2148	1576	1
4	2151	1580	1
4	2157	1584	1
4	2164	1588	1
4	2171	1592	1
4	2178	1596	1
4	2181	1600	1
4	2186	1604	1
4	2192	1608	1
4	2199	1612	1
4	2206	1616	1
4	2209	1620	1
4	2216	1624	1
4	2221	1628	1
4	2226	1632	1
4	2231	1636	1
4	2234	1640	1
4	2239	1644	1
4	2246	1648	1
4	2253	1652	1
4	2260	1656	1
4	2263	1660	1
4	2269	1664	1
4	2276	1668	1
4	2282	1672	1
4	2288	1676	1
4	2291	1680	1
4	2297	1684	1
4	2303	1688	1
4	2309	1692	1
4	2316	1696	1
4	2319	1700	1
4	2325	1704	1
4	2332	1708	1
4	2339	1712	1
4	2346	1716	1
4	2349	1720	1
4	2355	1724	1
4	2362	1728	1
4	2368	1732	1
4	2374	1736	1
4	2377	1740	1
4	2383	1744	1
4	2390	1748	1
4	2397	1752	1
4	2403	1756	1
4	2406	1760	1
4	2410	1764	1
4	2416	1768	1
4	2423	1772	1
4	2431	1776	1
4	2434	1780	1
4	2438	1784	1
4	2443	1788	1
4	2449	1792	1
4	2456	1796	1
4	2459	1800	1
4	2465	1804	1
4	2472	1808	1
4	2478	1812	1
4	2484	1816	1
4	2487	1820	1
4	2493	1824	1
4	2499	1828	1
4	2505	1832	1
4	2512	1836	1
4	2515	1840	1
4	2521	1844	1
4	2528	1848	1
4	2535	1852	1
4	2542	1856	1
4	2545	1860	1
4	2551	1864	1
4	2557	1868	1
4	2563	1872	1
4	2570	1876	1
4	2573	1880	1
4	2578	1884	1
4	2584	1888	1
4	2591	1892	1
4	2598	1896	1
4	2601	1900	1
4	2606	1904	1
4	2612	1908	1
4	2619	1912	1
4	2626	1916	1
4	2629	1920	1
4	2634	1924	1
4	2640	1928	1
4	2647	1932	1
4	2654	1936	1
4	2657	1940	1
4	2662	1944	1
4	2667	1948	1
4	2673	1952	1
4	2680	1956	1
4	2683	1960	1
4	2689	1964	1
4	2696	1968	1
4	2703	1972	1
4	2710	1976	1
4	2713	1980	1
4	2719	1984	1
4	2726	1988	1
4	2732	1992	1
4	2737	1996	1
4	2740	2000	1
4	2745	2004	1
4	2752	2008	1
4	2759	2012	1
4	2766	2016	1
4	2769	2020	1
4	2775	2024	1
4	2782	2028	1
4	2789	2032	1
4	2796	2036	1
4	2799	2040	1
4	2805	2044	1
4	2811	2048	1
4	2816	2052	1
4	2822	2056	1
4	2825	2060	1
4	2830	2064	1
4	2836	2068	1
4	2842	2072	1
4	2848	2076	1
4	2851	2080	1
4	2857	2084	1
4	2864	2088	1
4	2871	2092	1
4	2878	2096	1
4	2881	2100	1
4	2887	2104	1
4	2894	2108	1
4	2901	2112	1
4	2907	2116	1
4	2910	2120	1
4	2915	2124	1
4	2922	2128	1
4	2929	2132	1
4	2936	2136	1
4	2939	2140	1
4	2945	2144	1
4	2952	2148	1
4	2959	2152	1
4	2966	2156	1
4	2969	2160	1
4	2975	2164	1
4	2981	2168	1
4	2987	2172	1
4	2994	2176	1
4	2997	2180	1
4	3003	2184	1
4	3010	2188	1
4	3017	2192	1
4	3024	2196	1
4	3027	2200	1
4	3033	2204	1
4	3040	2208	1
4	3047	2212	1
4	3054	2216	1
4	3057	2220	1
4	3063	2224	1
4	3070	2228	1
4	3077	2232	1
4	3084	2236	1
4	3087	2240	1
4	3093	2244	1
4	3099	2248	1
4	3104	2252	1
4	3110	2256	1
4	3113	2260	1
4	3119	2264	1
4	3126	2268	1
4	3133	2272	1
4	3140	2276	1
4	3143	2280	1
4	3149	2284	1
4	3155	2288	1
4	3161	2292	1
4	3168	2296	1
4	3171	2300	1
4	3177	2304	1
4	3184	2308	1
4	3191	2312	1
4	3198	2316	1
4	3201	2320	1
4	3207	2324	1
4	3214	2328	1
4	3221	2332	1
4	3227	2336	1
4	3230	2340	1
4	3235	2344	1
4	3241	2348	1
4	3247	2352	1
4	3254	2356	1
4	3257	2360	1
4	3263	2364	1
4	3270	2368	1
4	3277	2372	1
4	3284	2376	1
4	3287	2380	1
4	3293	2384	1
4	3300	2388	1
4	3306	2392	1
4	3312	2396	1
4	3315	2400	1
4	3321	2404	1
4	3328	2408	1
4	3335	2412	1
4	3342	2416	1
4	3345	2420	1
4	3351	2424	1
4	3358	2428	1
4	3364	2432	1
4	3370	2436	1
4	3373	2440	1
4	3378	2444	1
4	3383	2448	1
4	3389	2452	1
4	3396	2456	1
4	3399	2460	1
4	3405	2464	1
4	3412	2468	1
4	3418	2472	1
4	3423	2476	1
4	3426	2480	1
4	3430	2484	1
4	3436	2488	1
4	3442	2492	1
4	3448	2496	1
4	3451	2500	1
4	3457	2504	1
4	3464	2508	1
4	3471	2512	1
4	3478	2516	1
4	3481	2520	1
4	3487	2524	1
4	3494	2528	1
4	3501	2532	1
4	3508	2536	1
4	3511	2540	1
4	3517	2544	1
4	3524	2548	1
4	3531	2552	1
4	3537	2556	1
4	3540	2560	1
4	3545	2564	1
4	3552	2568	1
4	3559	2572	1
4	3566	2576	1
4	3569	2580	1
4	3575	2584	1
4	3582	2588	1
4	3589	2592	1
4	3596	2596	1
4	3599	2600	1
4	3605	2604	1
4	3612	2608	1
4	3618	2612	1
4	3624	2616	1
4	3627	2620	1
4	3633	2624	1
4	3640	2628	1
4	3647	2632	1
4	3653	2636	1
4	3656	2640	1
4	3660	2644	1
4	3666	2648	1
4	3673	2652	1
4	3679	2656	1
4	3682	2660	1
4	3687	2664	1
4	3694	2668	1
4	3700	2672	1
4	3706	2676	1
4	3709	2680	1
4	3715	2684	1
4	3722	2688	1
4	3728	2692	1
4	3734	2696	1
4	3737	2700	1
4	3743	2704	1
4	3750	2708	1
4	3757	2712	1
4	3764	2716	1
4	3767	2720	1
4	3773	2724	1
4	3780	2728	1
4	3787	2732	1
4	3794	2736	1
4	3797	2740	1
4	3803	2744	1
4	3809	2748	1
4	3815	2752	1
4	3822	2756	1
4	3825	2760	1
4	3831	2764	1
4	3838	2768	1
4	3845	2772	1
4	3852	2776	1
4	3855	2780	1
4	3861	2784	1
4	3868	2788	1
4	3875	2792	1
4	3882	2796	1
4	3885	2800	1
4	3891	2804	1
4	3897	2808	1
4	3903	2812	1
4	3910	2816	1
4	3913	2820	1
4	3919	2824	1
4	3926	2828	1
4	3933	2832	1
4	3940	2836	1
4	3943	2840	1
4	3949	2844	1
4	3956	2848	1
4	3963	2852	1
4	3970	2856	1
4	3973	2860	1
4	3979	2864	1
4	3986	2868	1
4	3993	2872	1
4	3999	2876	1
4	4002	2880	1
4	4007	2884	1
4	4014	2888	1
4	4021	2892	1
4	4028	2896	1
4	4031	2900	1
4	4037	2904	1
4	4044	2908	1
4	4051	2912	1
4	4058	2916	1
4	4061	2920	1
4	4067	2924	1
4	4074	2928	1
4	4081	2932	1
4	4087	2936	1
4	4090	2940	1
4	4095	2944	1
4	4102	2948	1
4	4109	2952	1
4	4115	2956	1
4	4118	2960	1
4	4123	2964	1
4	4130	2968	1
4	4137	2972	1
4	4143	2976	1
4	4146	2980	1
4	4150	2984	1
4	4156	2988	1
4	4163	2992	1
4	4170	2996	1
4	4173	3000	1
4	4179	3004	1
4	4185	3008	1
4	4190	3012	1
4	4196	3016	1
4	4199	3020	1
4	4204	3024	1
4	4209	3028	1
4	4215	3032	1
4	4222	3036	1
4	4225	3040	1
4	4231	3044	1
4	4238	3048	1
4	4245	3052	1
4	4252	3056	1
4	4255	3060	1
4	4260	3064	1
4	4265	3068	1
4	4270	3072	1
4	4276	3076	1
4	4279	3080	1
4	4285	3084	1
4	4291	3088	1
4	4297	3092	1
4	4303	3096	1
4	4306	3100	1
4	4311	3104	1
4	4318	3108	1
4	4325	3112	1
4	4332	3116	1
4	4335	3120	1
4	4341	3124	1
4	4347	3128	1
4	4353	3132	1
4	4360	3136	1
4	4363	3140	1
4	4369	3144	1
4	4376	3148	1
4	4383	3152	1
4	4390	3156	1
4	4393	3160	1
4	4399	3164	1
4	4405	3168	1
4	4410	3172	1
4	4416	3176	1
4	4419	3180	1
4	4425	3184	1
4	4432	3188	1
4	4439	3192	1
4	4446	3196	1
4	4449	3200	1
4	4455	3204	1
4	4462	3208	1
4	4469	3212	1
4	4476	3216	1
4	4479	3220	1
4	4485	3224	1
4	4491	3228	1
4	4496	3232	1
4	4501	3236	1
4	4504	3240	1
4	4509	3244	1
4	4516	3248	1
4	4523	3252	1
4	4529	3256	1
4	4532	3260	1
4	4537	3264	1
4	4544	3268	1
4	4551	3272	1
4	4558	3276	1
4	4561	3280	1
4	4567	3284	1
4	4587	3296	1
4	4590	3300	1
4	4594	3304	1
4	4599	3308	1
4	4604	3312	1
4	4610	3316	1
4	4613	3320	1
4	4620	3324	1
4	4625	3328	1
4	4630	3332	1
4	4636	3336	1
4	4639	3340	1
4	4645	3344	1
4	4652	3348	1
4	4659	3352	1
4	4667	3356	1
4	4670	3360	1
4	4674	3364	1
4	4679	3368	1
4	4684	3372	1
4	4691	3376	1
4	4694	3380	1
4	4698	3384	1
4	4703	3388	1
4	4708	3392	1
4	4713	3396	1
4	4716	3400	1
4	4720	3404	1
4	4725	3408	1
4	4730	3412	1
4	4735	3416	1
4	4738	3420	1
4	4742	3424	1
4	4747	3428	1
4	4752	3432	1
4	4758	3436	1
4	4761	3440	1
4	4766	3444	1
4	4771	3448	1
4	4777	3452	1
4	4784	3456	1
4	4787	3460	1
4	4793	3464	1
4	4800	3468	1
4	4807	3472	1
4	4814	3476	1
4	4817	3480	1
4	4823	3484	1
4	4829	3488	1
4	4835	3492	1
4	4841	3496	1
4	4844	3500	1
4	4849	3504	1
4	4856	3508	1
4	4863	3512	1
4	4870	3516	1
4	4873	3520	1
4	4879	3524	1
4	4885	3528	1
4	4891	3532	1
4	4898	3536	1
4	4901	3540	1
4	4908	3544	1
4	4913	3548	1
4	4918	3552	1
4	4923	3556	1
4	4926	3560	1
4	4930	3564	1
4	4935	3568	1
4	4940	3572	1
4	4945	3576	1
4	4948	3580	1
4	4952	3584	1
4	4958	3588	1
4	4965	3592	1
4	4972	3596	1
4	4975	3600	1
5	40	35	1
5	835	610	1
5	854	625	1
5	885	650	1
5	1044	785	1
5	1051	790	1
5	1077	810	1
5	1091	820	1
5	1098	825	1
5	1134	855	1
5	1148	865	1
5	1155	870	1
5	1162	875	1
5	1171	880	1
5	1178	885	1
5	1197	900	1
5	1204	905	1
5	1211	910	1
5	1218	915	1
5	1227	920	1
5	1234	925	1
5	1241	930	1
5	1248	935	1
5	1257	940	1
5	1264	945	1
5	1271	950	1
5	1278	955	1
5	1287	960	1
5	1294	965	1
5	1301	970	1
5	1308	975	1
5	1317	980	1
5	1324	985	1
5	1331	990	1
5	1345	1000	1
5	1352	1005	1
5	1388	1035	1
5	1397	1040	1
5	1404	1045	1
5	1411	1050	1
5	1425	1060	1
5	1432	1065	1
5	1439	1070	1
5	1446	1075	1
5	1470	1095	1
5	1479	1100	1
5	1486	1105	1
5	1493	1110	1
5	1500	1115	1
5	1509	1120	1
5	1516	1125	1
5	1528	1135	1
5	1542	1145	1
5	1549	1150	1
5	1563	1160	1
5	1570	1165	1
5	1577	1170	1
5	1591	1180	1
5	1598	1185	1
5	1610	1195	1
5	1624	1205	1
5	1636	1215	1
5	1650	1225	1
5	1662	1235	1
5	1671	1240	1
5	1678	1245	1
5	1685	1250	1
5	1692	1255	1
5	1701	1260	1
5	1708	1265	1
5	1715	1270	1
5	1722	1275	1
5	1731	1280	1
5	1743	1290	1
5	1750	1295	1
5	1769	1310	1
5	1776	1315	1
5	1785	1320	1
5	1792	1325	1
5	1799	1330	1
5	1806	1335	1
5	1820	1345	1
5	1827	1350	1
5	1834	1355	1
5	1848	1365	1
5	1855	1370	1
5	1862	1375	1
5	1886	1395	1
5	1900	1405	1
5	1907	1410	1
5	1914	1415	1
5	1928	1425	1
5	1935	1430	1
5	1942	1435	1
5	1951	1440	1
5	1958	1445	1
5	1965	1450	1
5	1972	1455	1
5	1986	1465	1
5	1998	1475	1
5	2007	1480	1
5	2014	1485	1
5	2021	1490	1
5	2028	1495	1
5	2037	1500	1
5	2044	1505	1
5	2051	1510	1
5	2058	1515	1
5	2067	1520	1
5	2074	1525	1
5	2081	1530	1
5	2088	1535	1
5	2097	1540	1
5	2104	1545	1
5	2111	1550	1
5	2118	1555	1
5	2132	1565	1
5	2144	1575	1
5	2153	1580	1
5	2160	1585	1
5	2167	1590	1
5	2174	1595	1
5	2183	1600	1
5	2195	1610	1
5	2202	1615	1
5	2211	1620	1
5	2242	1645	1
5	2249	1650	1
5	2256	1655	1
5	2265	1660	1
5	2272	1665	1
5	2279	1670	1
5	2293	1680	1
5	2300	1685	1
5	2312	1695	1
5	2321	1700	1
5	2328	1705	1
5	2335	1710	1
5	2342	1715	1
5	2351	1720	1
5	2358	1725	1
5	2365	1730	1
5	2379	1740	1
5	2386	1745	1
5	2393	1750	1
5	2400	1755	1
5	2419	1770	1
5	2426	1775	1
5	2452	1795	1
5	2461	1800	1
5	2468	1805	1
5	2475	1810	1
5	2489	1820	1
5	2496	1825	1
5	2508	1835	1
5	2517	1840	1
5	2524	1845	1
5	2531	1850	1
5	2538	1855	1
5	2547	1860	1
5	2554	1865	1
5	2566	1875	1
5	2575	1880	1
5	2587	1890	1
5	2594	1895	1
5	2603	1900	1
5	2615	1910	1
5	2622	1915	1
5	2631	1920	1
5	2643	1930	1
5	2650	1935	1
5	2659	1940	1
5	2676	1955	1
5	2685	1960	1
5	2692	1965	1
5	2699	1970	1
5	2706	1975	1
5	2715	1980	1
5	2722	1985	1
5	2729	1990	1
5	2748	2005	1
5	2755	2010	1
5	2762	2015	1
5	2771	2020	1
5	2778	2025	1
5	2785	2030	1
5	2792	2035	1
5	2801	2040	1
5	2808	2045	1
5	2827	2060	1
5	2839	2070	1
5	2853	2080	1
5	2860	2085	1
5	2867	2090	1
5	2874	2095	1
5	2883	2100	1
5	2890	2105	1
5	2897	2110	1
5	2904	2115	1
5	2918	2125	1
5	2925	2130	1
5	2932	2135	1
5	2941	2140	1
5	2948	2145	1
5	2955	2150	1
5	2962	2155	1
5	2971	2160	1
5	2978	2165	1
5	2990	2175	1
5	2999	2180	1
5	3006	2185	1
5	3013	2190	1
5	3020	2195	1
5	3029	2200	1
5	3036	2205	1
5	3043	2210	1
5	3050	2215	1
5	3059	2220	1
5	3066	2225	1
5	3073	2230	1
5	3080	2235	1
5	3089	2240	1
5	3096	2245	1
5	3115	2260	1
5	3122	2265	1
5	3129	2270	1
5	3136	2275	1
5	3145	2280	1
5	3152	2285	1
5	3164	2295	1
5	3173	2300	1
5	3180	2305	1
5	3187	2310	1
5	3194	2315	1
5	3203	2320	1
5	3210	2325	1
5	3217	2330	1
5	3224	2335	1
5	3238	2345	1
5	3250	2355	1
5	3259	2360	1
5	3266	2365	1
5	3273	2370	1
5	3280	2375	1
5	3289	2380	1
5	3296	2385	1
5	3303	2390	1
5	3317	2400	1
5	3324	2405	1
5	3331	2410	1
5	3338	2415	1
5	3347	2420	1
5	3354	2425	1
5	3361	2430	1
5	3375	2440	1
5	3392	2455	1
5	3401	2460	1
5	3408	2465	1
5	3415	2470	1
5	3439	2490	1
5	3453	2500	1
5	3460	2505	1
5	3467	2510	1
5	3474	2515	1
5	3483	2520	1
5	3490	2525	1
5	3497	2530	1
5	3504	2535	1
5	3513	2540	1
5	3520	2545	1
5	3527	2550	1
5	3534	2555	1
5	3548	2565	1
5	3555	2570	1
5	3562	2575	1
5	3571	2580	1
5	3578	2585	1
5	3585	2590	1
5	3592	2595	1
5	3601	2600	1
5	3608	2605	1
5	3615	2610	1
5	3629	2620	1
5	3636	2625	1
5	3643	2630	1
5	3650	2635	1
5	3669	2650	1
5	3676	2655	1
5	3690	2665	1
5	3697	2670	1
5	3711	2680	1
5	3718	2685	1
5	3725	2690	1
5	3739	2700	1
5	3746	2705	1
5	3753	2710	1
5	3760	2715	1
5	3769	2720	1
5	3776	2725	1
5	3783	2730	1
5	3790	2735	1
5	3799	2740	1
5	3806	2745	1
5	3818	2755	1
5	3827	2760	1
5	3834	2765	1
5	3841	2770	1
5	3848	2775	1
5	3857	2780	1
5	3864	2785	1
5	3871	2790	1
5	3878	2795	1
5	3887	2800	1
5	3894	2805	1
5	3906	2815	1
5	3915	2820	1
5	3922	2825	1
5	3929	2830	1
5	3936	2835	1
5	3945	2840	1
5	3952	2845	1
5	3959	2850	1
5	3966	2855	1
5	3975	2860	1
5	3982	2865	1
5	3989	2870	1
5	3996	2875	1
5	4010	2885	1
5	4017	2890	1
5	4024	2895	1
5	4033	2900	1
5	4040	2905	1
5	4047	2910	1
5	4054	2915	1
5	4063	2920	1
5	4070	2925	1
5	4077	2930	1
5	4084	2935	1
5	4098	2945	1
5	4105	2950	1
5	4112	2955	1
5	4126	2965	1
5	4133	2970	1
5	4140	2975	1
5	4159	2990	1
5	4166	2995	1
5	4175	3000	1
5	4182	3005	1
5	4201	3020	1
5	4218	3035	1
5	4227	3040	1
5	4234	3045	1
5	4241	3050	1
5	4248	3055	1
5	4257	3060	1
5	4281	3080	1
5	4288	3085	1
5	4300	3095	1
5	4314	3105	1
5	4321	3110	1
5	4328	3115	1
5	4337	3120	1
5	4344	3125	1
5	4356	3135	1
5	4365	3140	1
5	4372	3145	1
5	4379	3150	1
5	4386	3155	1
5	4395	3160	1
5	4402	3165	1
5	4421	3180	1
5	4428	3185	1
5	4435	3190	1
5	4442	3195	1
5	4451	3200	1
5	4458	3205	1
5	4465	3210	1
5	4472	3215	1
5	4481	3220	1
5	4488	3225	1
5	4512	3245	1
5	4519	3250	1
5	4526	3255	1
5	4540	3265	1
5	4547	3270	1
5	4554	3275	1
5	4563	3280	1
5	4615	3320	1
5	4641	3340	1
5	4648	3345	1
5	4655	3350	1
5	4662	3355	1
5	4763	3440	1
5	4780	3455	1
5	4789	3460	1
5	4796	3465	1
5	4803	3470	1
5	4810	3475	1
5	4819	3480	1
5	4826	3485	1
5	4838	3495	1
5	4852	3505	1
5	4859	3510	1
5	4866	3515	1
5	4875	3520	1
5	4882	3525	1
5	4894	3535	1
5	4903	3540	1
5	4961	3590	1
5	4968	3595	1
5	4977	3600	1
6	40	35	31
6	835	610	602
6	854	625	613
6	885	650	634
6	1044	785	765
6	1051	790	754
6	1077	810	198
6	1091	820	192
6	1098	825	173
6	1134	855	67
6	1148	865	73
6	1155	870	58
6	1162	875	51
6	1171	880	52
6	1178	885	29
6	1197	900	32
6	1204	905	33
6	1211	910	34
6	1218	915	31
6	1227	920	32
6	1234	925	21
6	1241	930	22
6	1248	935	23
6	1257	940	24
6	1264	945	21
6	1271	950	22
6	1278	955	23
6	1287	960	24
6	1294	965	21
6	1301	970	22
6	1308	975	23
6	1317	980	24
6	1324	985	21
6	1331	990	22
6	1345	1000	28
6	1352	1005	29
6	1388	1035	51
6	1397	1040	52
6	1404	1045	53
6	1411	1050	46
6	1425	1060	52
6	1432	1065	29
6	1439	1070	26
6	1446	1075	27
6	1470	1095	43
6	1479	1100	36
6	1486	1105	37
6	1493	1110	38
6	1500	1115	39
6	1509	1120	24
6	1516	1125	21
6	1528	1135	27
6	1542	1145	33
6	1549	1150	34
6	1563	1160	36
6	1570	1165	37
6	1577	1170	34
6	1591	1180	32
6	1598	1185	33
6	1610	1195	31
6	1624	1205	37
6	1636	1215	43
6	1650	1225	41
6	1662	1235	47
6	1671	1240	44
6	1678	1245	37
6	1685	1250	34
6	1692	1255	27
6	1701	1260	24
6	1708	1265	21
6	1715	1270	22
6	1722	1275	23
6	1731	1280	24
6	1743	1290	26
6	1750	1295	27
6	1769	1310	38
6	1776	1315	39
6	1785	1320	36
6	1792	1325	33
6	1799	1330	34
6	1806	1335	23
6	1820	1345	29
6	1827	1350	26
6	1834	1355	27
6	1848	1365	33
6	1855	1370	34
6	1862	1375	27
6	1886	1395	43
6	1900	1405	49
6	1907	1410	42
6	1914	1415	43
6	1928	1425	49
6	1935	1430	34
6	1942	1435	27
6	1951	1440	28
6	1958	1445	29
6	1965	1450	22
6	1972	1455	23
6	1986	1465	29
6	1998	1475	31
6	2007	1480	32
6	2014	1485	33
6	2021	1490	34
6	2028	1495	27
6	2037	1500	24
6	2044	1505	21
6	2051	1510	22
6	2058	1515	23
6	2067	1520	24
6	2074	1525	21
6	2081	1530	22
6	2088	1535	23
6	2097	1540	24
6	2104	1545	21
6	2111	1550	22
6	2118	1555	23
6	2132	1565	29
6	2144	1575	31
6	2153	1580	32
6	2160	1585	33
6	2167	1590	34
6	2174	1595	27
6	2183	1600	24
6	2195	1610	26
6	2202	1615	27
6	2211	1620	28
6	2242	1645	49
6	2249	1650	46
6	2256	1655	43
6	2265	1660	44
6	2272	1665	41
6	2279	1670	22
6	2293	1680	28
6	2300	1685	29
6	2312	1695	31
6	2321	1700	32
6	2328	1705	33
6	2335	1710	26
6	2342	1715	27
6	2351	1720	24
6	2358	1725	21
6	2365	1730	22
6	2379	1740	28
6	2386	1745	29
6	2393	1750	26
6	2400	1755	27
6	2419	1770	38
6	2426	1775	31
6	2452	1795	47
6	2461	1800	48
6	2468	1805	49
6	2475	1810	38
6	2489	1820	44
6	2496	1825	29
6	2508	1835	31
6	2517	1840	32
6	2524	1845	33
6	2531	1850	26
6	2538	1855	27
6	2547	1860	24
6	2554	1865	21
6	2566	1875	27
6	2575	1880	28
6	2587	1890	34
6	2594	1895	31
6	2603	1900	32
6	2615	1910	34
6	2622	1915	31
6	2631	1920	28
6	2643	1930	34
6	2650	1935	31
6	2659	1940	28
6	2676	1955	39
6	2685	1960	36
6	2692	1965	33
6	2699	1970	34
6	2706	1975	31
6	2715	1980	24
6	2722	1985	21
6	2729	1990	22
6	2748	2005	33
6	2755	2010	34
6	2762	2015	31
6	2771	2020	32
6	2778	2025	33
6	2785	2030	22
6	2792	2035	23
6	2801	2040	24
6	2808	2045	21
6	2827	2060	32
6	2839	2070	38
6	2853	2080	44
6	2860	2085	41
6	2867	2090	42
6	2874	2095	31
6	2883	2100	28
6	2890	2105	21
6	2897	2110	22
6	2904	2115	23
6	2918	2125	29
6	2925	2130	26
6	2932	2135	27
6	2941	2140	28
6	2948	2145	29
6	2955	2150	22
6	2962	2155	23
6	2971	2160	24
6	2978	2165	21
6	2990	2175	27
6	2999	2180	28
6	3006	2185	29
6	3013	2190	26
6	3020	2195	27
6	3029	2200	24
6	3036	2205	21
6	3043	2210	22
6	3050	2215	23
6	3059	2220	24
6	3066	2225	21
6	3073	2230	22
6	3080	2235	23
6	3089	2240	24
6	3096	2245	21
6	3115	2260	32
6	3122	2265	33
6	3129	2270	34
6	3136	2275	31
6	3145	2280	32
6	3152	2285	21
6	3164	2295	27
6	3173	2300	28
6	3180	2305	29
6	3187	2310	26
6	3194	2315	27
6	3203	2320	24
6	3210	2325	21
6	3217	2330	22
6	3224	2335	23
6	3238	2345	29
6	3250	2355	31
6	3259	2360	32
6	3266	2365	33
6	3273	2370	34
6	3280	2375	27
6	3289	2380	24
6	3296	2385	21
6	3303	2390	22
6	3317	2400	28
6	3324	2405	29
6	3331	2410	26
6	3338	2415	27
6	3347	2420	28
6	3354	2425	21
6	3361	2430	22
6	3375	2440	28
6	3392	2455	39
6	3401	2460	36
6	3408	2465	37
6	3415	2470	38
6	3439	2490	46
6	3453	2500	44
6	3460	2505	41
6	3467	2510	42
6	3474	2515	43
6	3483	2520	28
6	3490	2525	21
6	3497	2530	22
6	3504	2535	23
6	3513	2540	24
6	3520	2545	21
6	3527	2550	22
6	3534	2555	23
6	3548	2565	29
6	3555	2570	26
6	3562	2575	27
6	3571	2580	28
6	3578	2585	29
6	3585	2590	22
6	3592	2595	23
6	3601	2600	24
6	3608	2605	21
6	3615	2610	22
6	3629	2620	28
6	3636	2625	29
6	3643	2630	26
6	3650	2635	27
6	3669	2650	38
6	3676	2655	31
6	3690	2665	37
6	3697	2670	38
6	3711	2680	44
6	3718	2685	33
6	3725	2690	34
6	3739	2700	32
6	3746	2705	33
6	3753	2710	26
6	3760	2715	27
6	3769	2720	28
6	3776	2725	21
6	3783	2730	22
6	3790	2735	23
6	3799	2740	24
6	3806	2745	21
6	3818	2755	27
6	3827	2760	28
6	3834	2765	29
6	3841	2770	26
6	3848	2775	27
6	3857	2780	24
6	3864	2785	21
6	3871	2790	22
6	3878	2795	23
6	3887	2800	24
6	3894	2805	21
6	3906	2815	27
6	3915	2820	28
6	3922	2825	29
6	3929	2830	26
6	3936	2835	27
6	3945	2840	24
6	3952	2845	21
6	3959	2850	22
6	3966	2855	23
6	3975	2860	24
6	3982	2865	21
6	3989	2870	22
6	3996	2875	23
6	4010	2885	29
6	4017	2890	26
6	4024	2895	27
6	4033	2900	28
6	4040	2905	29
6	4047	2910	22
6	4054	2915	23
6	4063	2920	24
6	4070	2925	21
6	4077	2930	22
6	4084	2935	23
6	4098	2945	29
6	4105	2950	26
6	4112	2955	27
6	4126	2965	33
6	4133	2970	34
6	4140	2975	27
6	4159	2990	38
6	4166	2995	39
6	4175	3000	32
6	4182	3005	33
6	4201	3020	44
6	4218	3035	43
6	4227	3040	44
6	4234	3045	41
6	4241	3050	42
6	4248	3055	31
6	4257	3060	24
6	4281	3080	36
6	4288	3085	37
6	4300	3095	43
6	4314	3105	49
6	4321	3110	46
6	4328	3115	31
6	4337	3120	32
6	4344	3125	29
6	4356	3135	27
6	4365	3140	28
6	4372	3145	29
6	4379	3150	26
6	4386	3155	27
6	4395	3160	24
6	4402	3165	21
6	4421	3180	32
6	4428	3185	33
6	4435	3190	34
6	4442	3195	31
6	4451	3200	32
6	4458	3205	21
6	4465	3210	22
6	4472	3215	23
6	4481	3220	24
6	4488	3225	21
6	4512	3245	37
6	4519	3250	38
6	4526	3255	39
6	4540	3265	41
6	4547	3270	42
6	4554	3275	27
6	4563	3280	28
6	4615	3320	64
6	4641	3340	72
6	4648	3345	73
6	4655	3350	74
6	4662	3355	71
6	4763	3440	116
6	4780	3455	111
6	4789	3460	112
6	4796	3465	113
6	4803	3470	114
6	4810	3475	31
6	4819	3480	24
6	4826	3485	21
6	4838	3495	27
6	4852	3505	33
6	4859	3510	34
6	4866	3515	31
6	4875	3520	32
6	4882	3525	29
6	4894	3535	27
6	4903	3540	28
6	4961	3590	74
6	4968	3595	71
6	4977	3600	72
7	40	35	1
7	835	610	1
7	854	625	1
7	885	650	1
7	1044	785	1
7	1051	790	1
7	1077	810	1
7	1091	820	1
7	1098	825	1
7	1134	855	1
7	1148	865	1
7	1155	870	1
7	1162	875	1
7	1171	880	1
7	1178	885	1
7	1197	900	1
7	1204	905	1
7	1211	910	1
7	1218	915	1
7	1227	920	1
7	1234	925	1
7	1241	930	1
7	1248	935	1
7	1257	940	1
7	1264	945	1
7	1271	950	1
7	1278	955	1
7	1287	960	1
7	1294	965	1
7	1301	970	1
7	1308	975	1
7	1317	980	1
7	1324	985	1
7	1331	990	1
7	1345	1000	1
7	1352	1005	1
7	1388	1035	1
7	1397	1040	1
7	1404	1045	1
7	1411	1050	1
7	1425	1060	1
7	1432	1065	1
7	1439	1070	1
7	1446	1075	1
7	1470	1095	1
7	1479	1100	1
7	1486	1105	1
7	1493	1110	1
7	1500	1115	1
7	1509	1120	1
7	1516	1125	1
7	1528	1135	1
7	1542	1145	1
7	1549	1150	1
7	1563	1160	1
7	1570	1165	1
7	1577	1170	1
7	1591	1180	1
7	1598	1185	1
7	1610	1195	1
7	1624	1205	1
7	1636	1215	1
7	1650	1225	1
7	1662	1235	1
7	1671	1240	1
7	1678	1245	1
7	1685	1250	1
7	1692	1255	1
7	1701	1260	1
7	1708	1265	1
7	1715	1270	1
7	1722	1275	1
7	1731	1280	1
7	1743	1290	1
7	1750	1295	1
7	1769	1310	1
7	1776	1315	1
7	1785	1320	1
7	1792	1325	1
7	1799	1330	1
7	1806	1335	1
7	1820	1345	1
7	1827	1350	1
7	1834	1355	1
7	1848	1365	1
7	1855	1370	1
7	1862	1375	1
7	1886	1395	1
7	1900	1405	1
7	1907	1410	1
7	1914	1415	1
7	1928	1425	1
7	1935	1430	1
7	1942	1435	1
7	1951	1440	1
7	1958	1445	1
7	1965	1450	1
7	1972	1455	1
7	1986	1465	1
7	1998	1475	1
7	2007	1480	1
7	2014	1485	1
7	2021	1490	1
7	2028	1495	1
7	2037	1500	1
7	2044	1505	1
7	2051	1510	1
7	2058	1515	1
7	2067	1520	1
7	2074	1525	1
7	2081	1530	1
7	2088	1535	1
7	2097	1540	1
7	2104	1545	1
7	2111	1550	1
7	2118	1555	1
7	2132	1565	1
7	2144	1575	1
7	2153	1580	1
7	2160	1585	1
7	2167	1590	1
7	2174	1595	1
7	2183	1600	1
7	2195	1610	1
7	2202	1615	1
7	2211	1620	1
7	2242	1645	1
7	2249	1650	1
7	2256	1655	1
7	2265	1660	1
7	2272	1665	1
7	2279	1670	1
7	2293	1680	1
7	2300	1685	1
7	2312	1695	1
7	2321	1700	1
7	2328	1705	1
7	2335	1710	1
7	2342	1715	1
7	2351	1720	1
7	2358	1725	1
7	2365	1730	1
7	2379	1740	1
7	2386	1745	1
7	2393	1750	1
7	2400	1755	1
7	2419	1770	1
7	2426	1775	1
7	2452	1795	1
7	2461	1800	1
7	2468	1805	1
7	2475	1810	1
7	2489	1820	1
7	2496	1825	1
7	2508	1835	1
7	2517	1840	1
7	2524	1845	1
7	2531	1850	1
7	2538	1855	1
7	2547	1860	1
7	2554	1865	1
7	2566	1875	1
7	2575	1880	1
7	2587	1890	1
7	2594	1895	1
7	2603	1900	1
7	2615	1910	1
7	2622	1915	1
7	2631	1920	1
7	2643	1930	1
7	2650	1935	1
7	2659	1940	1
7	2676	1955	1
7	2685	1960	1
7	2692	1965	1
7	2699	1970	1
7	2706	1975	1
7	2715	1980	1
7	2722	1985	1
7	2729	1990	1
7	2748	2005	1
7	2755	2010	1
7	2762	2015	1
7	2771	2020	1
7	2778	2025	1
7	2785	2030	1
7	2792	2035	1
7	2801	2040	1
7	2808	2045	1
7	2827	2060	1
7	2839	2070	1
7	2853	2080	1
7	2860	2085	1
7	2867	2090	1
7	2874	2095	1
7	2883	2100	1
7	2890	2105	1
7	2897	2110	1
7	2904	2115	1
7	2918	2125	1
7	2925	2130	1
7	2932	2135	1
7	2941	2140	1
7	2948	2145	1
7	2955	2150	1
7	2962	2155	1
7	2971	2160	1
7	2978	2165	1
7	2990	2175	1
7	2999	2180	1
7	3006	2185	1
7	3013	2190	1
7	3020	2195	1
7	3029	2200	1
7	3036	2205	1
7	3043	2210	1
7	3050	2215	1
7	3059	2220	1
7	3066	2225	1
7	3073	2230	1
7	3080	2235	1
7	3089	2240	1
7	3096	2245	1
7	3115	2260	1
7	3122	2265	1
7	3129	2270	1
7	3136	2275	1
7	3145	2280	1
7	3152	2285	1
7	3164	2295	1
7	3173	2300	1
7	3180	2305	1
7	3187	2310	1
7	3194	2315	1
7	3203	2320	1
7	3210	2325	1
7	3217	2330	1
7	3224	2335	1
7	3238	2345	1
7	3250	2355	1
7	3259	2360	1
7	3266	2365	1
7	3273	2370	1
7	3280	2375	1
7	3289	2380	1
7	3296	2385	1
7	3303	2390	1
7	3317	2400	1
7	3324	2405	1
7	3331	2410	1
7	3338	2415	1
7	3347	2420	1
7	3354	2425	1
7	3361	2430	1
7	3375	2440	1
7	3392	2455	1
7	3401	2460	1
7	3408	2465	1
7	3415	2470	1
7	3439	2490	1
7	3453	2500	1
7	3460	2505	1
7	3467	2510	1
7	3474	2515	1
7	3483	2520	1
7	3490	2525	1
7	3497	2530	1
7	3504	2535	1
7	3513	2540	1
7	3520	2545	1
7	3527	2550	1
7	3534	2555	1
7	3548	2565	1
7	3555	2570	1
7	3562	2575	1
7	3571	2580	1
7	3578	2585	1
7	3585	2590	1
7	3592	2595	1
7	3601	2600	1
7	3608	2605	1
7	3615	2610	1
7	3629	2620	1
7	3636	2625	1
7	3643	2630	1
7	3650	2635	1
7	3669	2650	1
7	3676	2655	1
7	3690	2665	1
7	3697	2670	1
7	3711	2680	1
7	3718	2685	1
7	3725	2690	1
7	3739	2700	1
7	3746	2705	1
7	3753	2710	1
7	3760	2715	1
7	3769	2720	1
7	3776	2725	1
7	3783	2730	1
7	3790	2735	1
7	3799	2740	1
7	3806	2745	1
7	3818	2755	1
7	3827	2760	1
7	3834	2765	1
7	3841	2770	1
7	3848	2775	1
7	3857	2780	1
7	3864	2785	1
7	3871	2790	1
7	3878	2795	1
7	3887	2800	1
7	3894	2805	1
7	3906	2815	1
7	3915	2820	1
7	3922	2825	1
7	3929	2830	1
7	3936	2835	1
7	3945	2840	1
7	3952	2845	1
7	3959	2850	1
7	3966	2855	1
7	3975	2860	1
7	3982	2865	1
7	3989	2870	1
7	3996	2875	1
7	4010	2885	1
7	4017	2890	1
7	4024	2895	1
7	4033	2900	1
7	4040	2905	1
7	4047	2910	1
7	4054	2915	1
7	4063	2920	1
7	4070	2925	1
7	4077	2930	1
7	4084	2935	1
7	4098	2945	1
7	4105	2950	1
7	4112	2955	1
7	4126	2965	1
7	4133	2970	1
7	4140	2975	1
7	4159	2990	1
7	4166	2995	1
7	4175	3000	1
7	4182	3005	1
7	4201	3020	1
7	4218	3035	1
7	4227	3040	1
7	4234	3045	1
7	4241	3050	1
7	4248	3055	1
7	4257	3060	1
7	4281	3080	1
7	4288	3085	1
7	4300	3095	1
7	4314	3105	1
7	4321	3110	1
7	4328	3115	1
7	4337	3120	1
7	4344	3125	1
7	4356	3135	1
7	4365	3140	1
7	4372	3145	1
7	4379	3150	1
7	4386	3155	1
7	4395	3160	1
7	4402	3165	1
7	4421	3180	1
7	4428	3185	1
7	4435	3190	1
7	4442	3195	1
7	4451	3200	1
7	4458	3205	1
7	4465	3210	1
7	4472	3215	1
7	4481	3220	1
7	4488	3225	1
7	4512	3245	1
7	4519	3250	1
7	4526	3255	1
7	4540	3265	1
7	4547	3270	1
7	4554	3275	1
7	4563	3280	1
7	4615	3320	1
7	4641	3340	1
7	4648	3345	1
7	4655	3350	1
7	4662	3355	1
7	4763	3440	1
7	4780	3455	1
7	4789	3460	1
7	4796	3465	1
7	4803	3470	1
7	4810	3475	1
7	4819	3480	1
7	4826	3485	1
7	4838	3495	1
7	4852	3505	1
7	4859	3510	1
7	4866	3515	1
7	4875	3520	1
7	4882	3525	1
7	4894	3535	1
7	4903	3540	1
7	4961	3590	1
7	4968	3595	1
7	4977	3600	1
8	78	65	1
8	114	95	1
8	123	100	1
8	130	105	1
8	137	110	1
8	144	115	1
8	153	120	1
8	184	145	1
8	191	150	1
8	198	155	1
8	241	190	1
8	248	195	1
8	257	200	1
8	264	205	1
8	276	215	1
8	285	220	1
8	292	225	1
8	304	235	1
8	323	250	1
8	330	255	1
8	344	265	1
8	351	270	1
8	358	275	1
8	367	280	1
8	374	285	1
8	381	290	1
8	388	295	1
8	397	300	1
8	409	310	1
8	447	340	1
8	454	345	1
8	461	350	1
8	468	355	1
8	482	365	1
8	489	370	1
8	496	375	1
8	505	380	1
8	512	385	1
8	519	390	1
8	526	395	1
8	535	400	1
8	542	405	1
8	561	420	1
8	568	425	1
8	575	430	1
8	582	435	1
8	591	440	1
8	603	450	1
8	610	455	1
8	619	460	1
8	626	465	1
8	633	470	1
8	640	475	1
8	649	480	1
8	656	485	1
8	663	490	1
8	670	495	1
8	679	500	1
8	686	505	1
8	693	510	1
8	700	515	1
8	709	520	1
8	716	525	1
8	723	530	1
8	730	535	1
8	739	540	1
8	746	545	1
8	753	550	1
8	760	555	1
8	774	565	1
8	781	570	1
8	788	575	1
8	797	580	1
8	804	585	1
8	816	595	1
8	892	655	1
8	4570	3285	1
8	4577	3290	1
9	78	65	61
9	114	95	87
9	123	100	88
9	130	105	89
9	137	110	90
9	144	115	47
9	153	120	24
9	184	145	41
9	191	150	42
9	198	155	43
9	241	190	74
9	248	195	71
9	257	200	52
9	264	205	53
9	276	215	59
9	285	220	28
9	292	225	29
9	304	235	31
9	323	250	42
9	330	255	39
9	344	265	41
9	351	270	42
9	358	275	39
9	367	280	28
9	374	285	29
9	381	290	22
9	388	295	23
9	397	300	24
9	409	310	26
9	447	340	52
9	454	345	53
9	461	350	54
9	468	355	51
9	482	365	53
9	489	370	26
9	496	375	27
9	505	380	28
9	512	385	29
9	519	390	22
9	526	395	23
9	535	400	24
9	542	405	21
9	561	420	32
9	568	425	33
9	575	430	34
9	582	435	31
9	591	440	32
9	603	450	26
9	610	455	27
9	619	460	28
9	626	465	29
9	633	470	26
9	640	475	23
9	649	480	24
9	656	485	21
9	663	490	22
9	670	495	23
9	679	500	24
9	686	505	21
9	693	510	22
9	700	515	23
9	709	520	24
9	716	525	21
9	723	530	22
9	730	535	23
9	739	540	24
9	746	545	21
9	753	550	22
9	760	555	23
9	774	565	29
9	781	570	26
9	788	575	27
9	797	580	28
9	804	585	29
9	816	595	27
9	892	655	83
9	4570	3285	2709
9	4577	3290	2706
10	78	65	1
10	114	95	1
10	123	100	1
10	130	105	1
10	137	110	1
10	144	115	1
10	153	120	1
10	184	145	1
10	191	150	1
10	198	155	1
10	241	190	1
10	248	195	1
10	257	200	1
10	264	205	1
10	276	215	1
10	285	220	1
10	292	225	1
10	304	235	1
10	323	250	1
10	330	255	1
10	344	265	1
10	351	270	1
10	358	275	1
10	367	280	1
10	374	285	1
10	381	290	1
10	388	295	1
10	397	300	1
10	409	310	1
10	447	340	1
10	454	345	1
10	461	350	1
10	468	355	1
10	482	365	1
10	489	370	1
10	496	375	1
10	505	380	1
10	512	385	1
10	519	390	1
10	526	395	1
10	535	400	1
10	542	405	1
10	561	420	1
10	568	425	1
10	575	430	1
10	582	435	1
10	591	440	1
10	603	450	1
10	610	455	1
10	619	460	1
10	626	465	1
10	633	470	1
10	640	475	1
10	649	480	1
10	656	485	1
10	663	490	1
10	670	495	1
10	679	500	1
10	686	505	1
10	693	510	1
10	700	515	1
10	709	520	1
10	716	525	1
10	723	530	1
10	730	535	1
10	739	540	1
10	746	545	1
10	753	550	1
10	760	555	1
10	774	565	1
10	781	570	1
10	788	575	1
10	797	580	1
10	804	585	1
10	816	595	1
10	892	655	1
10	4570	3285	1
10	4577	3290	1

