version 2
run General-0-20201205-19:52:46-9247
attr configname General
attr datetime 20201205-19:52:46
attr experiment General
attr inifile omnetpp.ini
attr iterationvars ""
attr iterationvarsf ""
attr measurement ""
attr network slottedNetwork
attr processid 9247
attr repetition 0
attr replication #0
attr resultdir results
attr runnumber 0
attr seedset 0
param **.numTransmitters 4
param **.numChannels 4
param **.bufferSize 5
param **.sendProbability 1
param **.expMean 5s
param **.timeSlotSize 5s
param **.thresh 20s

vector 0 slottedNetwork.ch throughput:vector ETV
attr source throughputSignal
vector 1 slottedNetwork.receivers[2] responseTime:vector ETV
attr source responseTimeSignal
vector 2 slottedNetwork.receivers[2] threshold:vector ETV
attr source thresholdSignal
vector 3 slottedNetwork.receivers[3] responseTime:vector ETV
attr source responseTimeSignal
vector 4 slottedNetwork.receivers[3] threshold:vector ETV
attr source thresholdSignal
vector 5 slottedNetwork.transmitters[0] overflowPercentage:vector ETV
attr source overflowPercentageSignal
vector 6 slottedNetwork.receivers[1] responseTime:vector ETV
attr source responseTimeSignal
vector 7 slottedNetwork.receivers[1] threshold:vector ETV
attr source thresholdSignal
vector 8 slottedNetwork.transmitters[2] overflowPercentage:vector ETV
attr source overflowPercentageSignal
vector 9 slottedNetwork.transmitters[3] overflowPercentage:vector ETV
attr source overflowPercentageSignal
vector 10 slottedNetwork.transmitters[1] overflowPercentage:vector ETV
attr source overflowPercentageSignal
vector 11 slottedNetwork.receivers[0] responseTime:vector ETV
attr source responseTimeSignal
vector 12 slottedNetwork.receivers[0] threshold:vector ETV
attr source thresholdSignal
0	3	5	0
0	13	10	0
0	25	15	0
0	41	20	0
0	50	25	0
0	56	30	0
0	66	35	0
0	77	40	0
0	87	45	0
0	97	50	0
0	109	55	0
0	117	60	0
0	125	65	0
0	135	70	0
0	146	75	0
0	158	80	0
0	169	85	0
0	180	90	0
0	193	95	0
0	207	100	0
0	218	105	0
0	230	110	0
0	243	115	0
0	252	120	0
0	261	125	0
0	277	130	0
0	284	135	0
0	297	140	0
0	311	145	0
0	323	150	0
0	333	155	0
0	344	160	0
0	355	165	0
0	370	170	0
0	386	175	0
0	399	180	0
0	415	185	0
0	428	190	0
0	437	195	0
0	447	200	0
0	455	205	0
0	464	210	0
0	476	215	0
0	486	220	0
0	496	225	0
0	507	230	0
0	515	235	0
0	532	240	0
0	545	245	0
0	559	250	0
0	569	255	0
0	578	260	0
0	591	265	0
0	606	270	0
0	619	275	0
0	631	280	0
0	645	285	0
0	659	290	0
0	672	295	0
0	681	300	0
0	691	305	0
0	698	310	0
0	710	315	0
0	725	320	0
0	739	325	0
0	751	330	0
0	763	335	0
0	776	340	0
0	794	345	0
0	805	350	0
0	816	355	0
0	824	360	0
0	834	365	0
0	840	370	0
0	849	375	0
0	862	380	0
0	870	385	0
0	876	390	0
0	885	395	0
0	896	400	0
0	905	405	0
0	914	410	0
0	924	415	0
0	935	420	0
0	951	425	0
0	963	430	0
0	974	435	0
0	989	440	0
0	1002	445	0
0	1015	450	0
0	1024	455	0
0	1038	460	0
0	1052	465	0
0	1064	470	0
0	1077	475	0
0	1090	480	0
0	1105	485	0
0	1116	490	0
0	1127	495	0
0	1146	500	0
0	1155	505	0
0	1164	510	0
0	1171	515	0
0	1179	520	0
0	1189	525	0
0	1203	530	0
0	1213	535	0
0	1226	540	0
0	1238	545	0
0	1252	550	0
0	1265	555	0
0	1278	560	0
0	1290	565	0
0	1299	570	0
0	1309	575	0
0	1319	580	0
0	1328	585	0
0	1338	590	0
0	1350	595	0
0	1365	600	0
0	1375	605	0
0	1388	610	0
0	1403	615	0
0	1413	620	0
0	1422	625	0
0	1438	630	0
0	1450	635	0
0	1463	640	0
0	1473	645	0
0	1485	650	0
0	1498	655	0
0	1505	660	0
0	1515	665	0
0	1529	670	0
0	1538	675	0
0	1545	680	0
0	1557	685	0
0	1562	690	0
0	1570	695	0
0	1583	700	0
0	1593	705	0
0	1601	710	0
0	1612	715	0
0	1620	720	0
0	1633	725	0
0	1645	730	0
0	1659	735	0
0	1674	740	0
0	1688	745	0
0	1704	750	0
0	1715	755	0
0	1725	760	0
0	1735	765	0
0	1743	770	0
0	1751	775	0
0	1769	780	0
0	1780	785	0
0	1792	790	0
0	1803	795	0
0	1817	800	0
0	1829	805	0
0	1840	810	0
0	1853	815	0
0	1863	820	0
0	1875	825	0
0	1884	830	0
0	1895	835	0
0	1906	840	0
0	1920	845	0
0	1930	850	0
0	1943	855	0
0	1959	860	0
0	1976	865	0
0	1986	870	0
0	1994	875	0
0	2006	880	0
0	2017	885	0
0	2033	890	0
0	2050	895	0
0	2064	900	0
0	2078	905	0
0	2091	910	0
0	2108	915	0
0	2120	920	0
0	2134	925	0
0	2145	930	0
0	2157	935	0
0	2178	940	0
0	2189	945	0
0	2201	950	0
0	2212	955	0
0	2225	960	0
0	2237	965	0
0	2250	970	0
0	2269	975	0
0	2282	980	0
0	2296	985	0
0	2306	990	0
0	2323	995	0
0	2335	1000	0
0	2346	1005	0
0	2361	1010	0
0	2379	1015	0
0	2390	1020	0
0	2400	1025	0
0	2414	1030	0
0	2424	1035	0
0	2436	1040	0
0	2447	1045	0
0	2455	1050	0
0	2463	1055	0
0	2474	1060	0
0	2486	1065	0
0	2504	1070	0
0	2518	1075	0
0	2533	1080	0
0	2547	1085	0
0	2559	1090	0
0	2568	1095	0
0	2577	1100	0
0	2586	1105	0
0	2594	1110	0
0	2608	1115	0
0	2620	1120	0
0	2633	1125	0
0	2640	1130	0
0	2653	1135	0
0	2665	1140	0
0	2678	1145	0
0	2690	1150	0
0	2702	1155	0
0	2717	1160	0
0	2734	1165	0
0	2747	1170	0
0	2758	1175	0
0	2770	1180	0
0	2782	1185	0
0	2794	1190	0
0	2809	1195	0
0	2819	1200	0
0	2829	1205	0
0	2840	1210	0
0	2855	1215	0
0	2870	1220	0
0	2880	1225	0
0	2888	1230	0
0	2899	1235	0
0	2909	1240	0
0	2920	1245	0
0	2935	1250	0
0	2945	1255	0
0	2953	1260	0
0	2965	1265	0
0	2976	1270	0
0	2989	1275	0
0	3000	1280	0
0	3009	1285	0
0	3021	1290	0
0	3034	1295	0
0	3048	1300	0
0	3056	1305	0
0	3068	1310	0
0	3082	1315	0
0	3094	1320	0
0	3105	1325	0
0	3117	1330	0
0	3132	1335	0
0	3144	1340	0
0	3156	1345	0
0	3166	1350	0
0	3182	1355	0
0	3199	1360	0
0	3213	1365	0
0	3224	1370	0
0	3235	1375	0
0	3244	1380	0
0	3255	1385	0
0	3265	1390	0
0	3276	1395	0
0	3286	1400	0
0	3296	1405	0
0	3304	1410	0
0	3314	1415	0
0	3325	1420	0
0	3335	1425	0
0	3344	1430	0
0	3358	1435	0
0	3368	1440	0
0	3382	1445	0
0	3397	1450	0
0	3411	1455	0
0	3420	1460	0
0	3433	1465	0
0	3438	1470	0
0	3446	1475	0
0	3455	1480	0
0	3466	1485	0
0	3476	1490	0
0	3492	1495	0
0	3504	1500	0
0	3517	1505	0
0	3529	1510	0
0	3540	1515	0
0	3549	1520	0
0	3564	1525	0
0	3576	1530	0
0	3588	1535	0
0	3599	1540	0
0	3607	1545	0
0	3618	1550	0
0	3626	1555	0
0	3636	1560	0
0	3645	1565	0
0	3657	1570	0
0	3669	1575	0
0	3678	1580	0
0	3690	1585	0
0	3701	1590	0
0	3712	1595	0
0	3725	1600	0
0	3739	1605	0
0	3747	1610	0
0	3756	1615	0
0	3765	1620	0
0	3778	1625	0
0	3794	1630	0
0	3810	1635	0
0	3821	1640	0
0	3830	1645	0
0	3840	1650	0
0	3848	1655	0
0	3859	1660	0
0	3871	1665	0
0	3880	1670	0
0	3891	1675	0
0	3899	1680	0
0	3908	1685	0
0	3921	1690	0
0	3936	1695	0
0	3953	1700	0
0	3962	1705	0
0	3969	1710	0
0	3976	1715	0
0	3989	1720	0
0	4002	1725	0
0	4017	1730	0
0	4028	1735	0
0	4041	1740	0
0	4050	1745	0
0	4065	1750	0
0	4077	1755	0
0	4089	1760	0
0	4101	1765	0
0	4118	1770	0
0	4130	1775	0
0	4140	1780	0
0	4154	1785	0
0	4173	1790	0
0	4182	1795	0
0	4193	1800	0
0	4203	1805	0
0	4213	1810	0
0	4226	1815	0
0	4241	1820	0
0	4256	1825	0
0	4270	1830	0
0	4282	1835	0
0	4290	1840	0
0	4300	1845	0
0	4314	1850	0
0	4332	1855	0
0	4341	1860	0
0	4355	1865	0
0	4365	1870	0
0	4378	1875	0
0	4390	1880	0
0	4399	1885	0
0	4410	1890	0
0	4422	1895	0
0	4438	1900	0
0	4450	1905	0
0	4467	1910	0
0	4482	1915	0
0	4494	1920	0
0	4505	1925	0
0	4514	1930	0
0	4526	1935	0
0	4539	1940	0
0	4551	1945	0
0	4563	1950	0
0	4575	1955	0
0	4590	1960	0
0	4604	1965	0
0	4614	1970	0
0	4625	1975	0
0	4639	1980	0
0	4653	1985	0
0	4661	1990	0
0	4672	1995	0
0	4680	2000	0
0	4689	2005	0
0	4700	2010	0
0	4709	2015	0
0	4718	2020	0
0	4727	2025	0
0	4741	2030	0
0	4754	2035	0
0	4763	2040	0
0	4779	2045	0
0	4794	2050	0
0	4807	2055	0
0	4819	2060	0
0	4834	2065	0
0	4847	2070	0
0	4858	2075	0
0	4868	2080	0
0	4877	2085	0
0	4886	2090	0
0	4897	2095	0
0	4914	2100	0
0	4920	2105	0
0	4926	2110	0
0	4935	2115	0
0	4945	2120	0
0	4959	2125	0
0	4974	2130	0
0	4985	2135	0
0	4999	2140	0
0	5015	2145	0
0	5029	2150	0
0	5038	2155	0
0	5048	2160	0
0	5058	2165	0
0	5069	2170	0
0	5081	2175	0
0	5095	2180	0
0	5107	2185	0
0	5117	2190	0
0	5129	2195	0
0	5142	2200	0
0	5154	2205	0
0	5172	2210	0
0	5183	2215	0
0	5196	2220	0
0	5209	2225	0
0	5226	2230	0
0	5238	2235	0
0	5245	2240	0
0	5256	2245	0
0	5268	2250	0
0	5278	2255	0
0	5290	2260	0
0	5298	2265	0
0	5308	2270	0
0	5323	2275	0
0	5340	2280	0
0	5351	2285	0
0	5364	2290	0
0	5377	2295	0
0	5391	2300	0
0	5404	2305	0
0	5414	2310	0
0	5427	2315	0
0	5438	2320	0
0	5448	2325	0
0	5457	2330	0
0	5468	2335	0
0	5480	2340	0
0	5486	2345	0
0	5496	2350	0
0	5505	2355	0
0	5519	2360	0
0	5535	2365	0
0	5548	2370	0
0	5556	2375	0
0	5564	2380	0
0	5572	2385	0
0	5582	2390	0
0	5594	2395	0
0	5602	2400	0
0	5613	2405	0
0	5624	2410	0
0	5639	2415	0
0	5652	2420	0
0	5661	2425	0
0	5674	2430	0
0	5687	2435	0
0	5699	2440	0
0	5712	2445	0
0	5727	2450	0
0	5735	2455	0
0	5748	2460	0
0	5760	2465	0
0	5768	2470	0
0	5776	2475	0
0	5795	2480	0
0	5806	2485	0
0	5818	2490	0
0	5831	2495	0
0	5845	2500	0
0	5859	2505	0
0	5870	2510	0
0	5880	2515	0
0	5892	2520	0
0	5900	2525	0
0	5909	2530	0
0	5919	2535	0
0	5937	2540	0
0	5950	2545	0
0	5967	2550	0
0	5978	2555	0
0	5988	2560	0
0	5999	2565	0
0	6014	2570	0
0	6024	2575	0
0	6034	2580	0
0	6043	2585	0
0	6052	2590	0
0	6063	2595	0
0	6078	2600	0
0	6085	2605	0
0	6095	2610	0
0	6107	2615	0
0	6121	2620	0
0	6131	2625	0
0	6142	2630	0
0	6155	2635	0
0	6171	2640	0
0	6185	2645	0
0	6206	2650	0
0	6217	2655	0
0	6228	2660	0
0	6240	2665	0
0	6253	2670	0
0	6262	2675	0
0	6269	2680	0
0	6278	2685	0
0	6289	2690	0
0	6299	2695	0
0	6309	2700	0
0	6318	2705	0
0	6331	2710	0
0	6343	2715	0
0	6355	2720	0
0	6367	2725	0
0	6384	2730	0
0	6394	2735	0
0	6403	2740	0
0	6416	2745	0
0	6426	2750	0
0	6440	2755	0
0	6449	2760	0
0	6458	2765	0
0	6469	2770	0
0	6484	2775	0
0	6496	2780	0
0	6510	2785	0
0	6522	2790	0
0	6534	2795	0
0	6546	2800	0
0	6556	2805	0
0	6569	2810	0
0	6582	2815	0
0	6594	2820	0
0	6607	2825	0
0	6619	2830	0
0	6628	2835	0
0	6642	2840	0
0	6651	2845	0
0	6662	2850	0
0	6675	2855	0
0	6687	2860	0
0	6698	2865	0
0	6715	2870	0
0	6725	2875	0
0	6735	2880	0
0	6744	2885	0
0	6755	2890	0
0	6766	2895	0
0	6774	2900	0
0	6785	2905	0
0	6802	2910	0
0	6814	2915	0
0	6824	2920	0
0	6836	2925	0
0	6850	2930	0
0	6864	2935	0
0	6875	2940	0
0	6884	2945	0
0	6896	2950	0
0	6907	2955	0
0	6919	2960	0
0	6934	2965	0
0	6942	2970	0
0	6948	2975	0
0	6956	2980	0
0	6968	2985	0
0	6977	2990	0
0	6993	2995	0
0	7007	3000	0
0	7018	3005	0
0	7028	3010	0
0	7041	3015	0
0	7055	3020	0
0	7066	3025	0
0	7079	3030	0
0	7093	3035	0
0	7107	3040	0
0	7118	3045	0
0	7132	3050	0
0	7148	3055	0
0	7163	3060	0
0	7174	3065	0
0	7187	3070	0
0	7198	3075	0
0	7209	3080	0
0	7223	3085	0
0	7235	3090	0
0	7248	3095	0
0	7260	3100	0
0	7271	3105	0
0	7287	3110	0
0	7297	3115	0
0	7306	3120	0
0	7316	3125	0
0	7328	3130	0
0	7341	3135	0
0	7349	3140	0
0	7362	3145	0
0	7370	3150	0
0	7380	3155	0
0	7395	3160	0
0	7406	3165	0
0	7424	3170	0
0	7433	3175	0
0	7440	3180	0
0	7449	3185	0
0	7464	3190	0
0	7477	3195	0
0	7485	3200	0
0	7495	3205	0
0	7505	3210	0
0	7514	3215	0
0	7521	3220	0
0	7535	3225	0
0	7545	3230	0
0	7558	3235	0
0	7572	3240	0
0	7584	3245	0
0	7595	3250	0
0	7607	3255	0
0	7621	3260	0
0	7632	3265	0
0	7645	3270	0
0	7655	3275	0
0	7664	3280	0
0	7676	3285	0
0	7686	3290	0
0	7695	3295	0
0	7707	3300	0
0	7717	3305	0
0	7729	3310	0
0	7739	3315	0
0	7756	3320	0
0	7767	3325	0
0	7780	3330	0
0	7796	3335	0
0	7809	3340	0
0	7824	3345	0
0	7838	3350	0
0	7851	3355	0
0	7865	3360	0
0	7875	3365	0
0	7881	3370	0
0	7894	3375	0
0	7907	3380	0
0	7920	3385	0
0	7934	3390	0
0	7942	3395	0
0	7949	3400	0
0	7958	3405	0
0	7975	3410	0
0	7990	3415	0
0	8002	3420	0
0	8011	3425	0
0	8021	3430	0
0	8035	3435	0
0	8053	3440	0
0	8065	3445	0
0	8075	3450	0
0	8087	3455	0
0	8103	3460	0
0	8116	3465	0
0	8128	3470	0
0	8137	3475	0
0	8147	3480	0
0	8153	3485	0
0	8162	3490	0
0	8171	3495	0
0	8183	3500	0
0	8194	3505	0
0	8208	3510	0
0	8217	3515	0
0	8225	3520	0
0	8235	3525	0
0	8250	3530	0
0	8266	3535	0
0	8275	3540	0
0	8288	3545	0
0	8301	3550	0
0	8312	3555	0
0	8325	3560	0
0	8343	3565	0
0	8352	3570	0
0	8365	3575	0
0	8377	3580	0
0	8386	3585	0
0	8399	3590	0
0	8410	3595	0
0	8422	3600	0
1	27	15	8.720346209763
1	184	90	78.529549706444
1	197	95	75.685069118329
1	210	100	80.582941176334
1	220	105	83.286700490058
1	232	110	78.082239410499
1	376	170	75.267585740095
1	390	175	79.173182757559
1	403	180	79.297673086777
1	466	210	90.488036664257
1	582	260	136.32381908393
1	595	265	83.247485820141
1	712	315	115.88480842373
1	767	335	133.71308014401
1	780	340	126.15284326169
1	798	345	81.659081184978
1	851	375	104.93234401881
1	928	415	93.9853229575
1	939	420	82.162269656793
1	993	440	95.584138365309
1	1120	490	140.99999738365
1	1131	495	111.08482929282
1	1193	525	109.22267123477
1	1206	530	106.75951041381
1	1215	535	93.087491744188
1	1228	540	42.902925011511
1	1240	545	40.620123953632
1	1292	565	35.414178618368
1	1301	570	33.635586049118
1	1311	575	37.611324713385
1	1392	610	56.800748443089
1	1405	615	57.461439093651
1	1415	620	42.473621710051
1	1424	625	42.042605154264
1	1440	630	33.964400492153
1	1661	735	124.75079443401
1	1676	740	114.80532518662
1	1690	745	117.9899309857
1	1706	750	113.85229964661
1	1717	755	118.04658675249
1	1879	825	88.534280164891
1	1886	830	88.038511236785
1	1897	835	87.536168584396
1	1908	840	79.936725115163
1	1922	845	82.946983141919
1	1932	850	18.854798957188
1	1945	855	21.796296067824
1	1961	860	9.180539361677
1	2112	915	56.949001500899
1	2122	920	61.210842084743
1	2136	925	63.380194326265
1	2147	930	67.814327664304
1	2214	955	88.43613367385
1	2227	960	41.495141246207
1	2239	965	35.491056874379
1	2252	970	39.433950999489
1	2271	975	38.05969373674
1	2284	980	22.547061511098
1	2367	1010	49.551952232863
1	2383	1015	47.951179787869
1	2392	1020	49.613334711999
1	2402	1025	46.829621656077
1	2416	1030	45.607684770848
1	2426	1035	24.427454412031
1	2626	1120	96.724745159443
1	2706	1155	130.87445971548
1	2721	1160	128.25610831378
1	2738	1165	131.58513123897
1	2821	1200	162.04806663928
1	2831	1205	84.104470623298
1	2842	1210	51.886924098419
1	2857	1215	53.976018832735
1	2872	1220	48.326496198092
1	2882	1225	22.923072327045
1	2890	1230	13.668729158663
1	3170	1350	131.15416707527
1	3186	1355	117.17900540665
1	3203	1360	116.71140852093
1	3257	1385	140.46843589957
1	3267	1390	144.84038415285
1	3337	1425	70.900054885141
1	3346	1430	73.78340285487
1	3360	1435	69.826350239611
1	3370	1440	46.276783577761
1	3448	1475	77.138274468972
1	3457	1480	54.645972098003
1	3468	1485	53.554408217185
1	3478	1490	48.563699843488
1	3494	1495	50.366484876498
1	3591	1535	50.233966957861
1	3601	1540	50.954910356591
1	3609	1545	52.980379518267
1	3680	1580	73.64434915473
1	3692	1585	70.590765560891
1	3703	1590	52.000325658378
1	3714	1595	42.532125800606
1	3727	1600	41.396399512722
1	3782	1625	37.388294828736
1	3796	1630	39.951617474428
1	3852	1655	56.476065703773
1	3863	1660	60.672997664018
1	3925	1690	79.253642946432
1	3940	1695	66.629365715702
1	3978	1715	82.573325243883
1	3991	1720	49.175796142751
1	4004	1725	51.951409651215
1	4069	1750	56.889520206225
1	4081	1755	58.683650726522
1	4093	1760	43.31384846441
1	4105	1765	19.790128990673
1	4121	1770	22.550041604938
1	4132	1775	6.209372132845
1	4142	1780	9.626864505311
1	4156	1785	14.187197778784
1	4175	1790	16.464788915664
1	4184	1795	17.824839131455
1	4195	1800	21.899656257531
1	4205	1805	23.713867300413
1	4215	1810	24.707501193077
1	4228	1815	18.752301632183
1	4243	1820	12.889338863439
1	4258	1825	13.672905459678
1	4272	1830	17.875580997151
1	4284	1835	12.815111861238
1	4292	1840	14.634609640766
1	4302	1845	19.101650539801
1	4316	1850	18.600383589895
1	4394	1880	37.004247789409
1	4401	1885	36.734135103716
1	4412	1890	33.827314871963
1	4424	1895	37.324489811429
1	4440	1900	38.567217418184
1	4488	1915	9.413385892029
1	4498	1920	10.823008687049
1	4567	1950	31.401563040393
1	4579	1955	30.737175073942
1	4594	1960	30.170661272422
1	4663	1990	55.777615422537
1	4674	1995	59.940668330512
1	4682	2000	44.120992516842
1	4691	2005	48.044971192395
1	4702	2010	33.700580481682
1	4785	2045	51.71341299065
1	5085	2175	169.77006234784
1	5099	2180	174.31520990849
1	5147	2200	174.06628322776
1	5158	2205	178.32124863725
1	5176	2210	163.37807456525
1	5187	2215	39.089700744887
1	5200	2220	34.597590695237
1	5213	2225	21.412928233947
1	5327	2275	68.669631738752
1	5343	2280	66.804621281471
1	5353	2285	66.296852332959
1	5366	2290	63.159506367507
1	5379	2295	67.992004508609
1	5393	2300	24.648318255687
1	5450	2325	40.651787385886
1	5459	2330	41.596205117108
1	5470	2335	43.005215042796
1	5509	2355	57.480836291349
1	5523	2360	58.573702955417
1	5539	2365	36.008165831223
1	5663	2425	76.614126686343
1	5676	2430	78.4878203663
1	5689	2435	76.581837445913
1	5701	2440	79.843850244072
1	5714	2445	76.484432889019
1	5778	2475	49.861265461063
1	5797	2480	47.707223822893
1	5808	2485	29.797579007499
1	5820	2490	32.650679974775
1	5833	2495	25.316634665304
1	5847	2500	22.463016959886
1	5923	2535	47.512080679936
1	5941	2540	44.158093360513
1	5992	2560	46.372339217185
1	6003	2565	38.115711847774
1	6175	2640	110.10985039969
1	6189	2645	108.66002141841
1	6210	2650	103.1267839082
1	6221	2655	87.788519872243
1	6232	2660	92.119939072856
1	6244	2665	24.043396813634
1	6301	2695	34.301421034227
1	6311	2700	31.750946287889
1	6320	2705	36.59940429111
1	6333	2710	39.076970836639
1	6345	2715	40.143418305675
1	6357	2720	21.555052654687
1	6369	2725	19.196154996464
1	6451	2760	53.585587164654
1	6460	2765	53.18528211517
1	6538	2795	79.747155899529
1	6550	2800	74.897031607242
1	6560	2805	78.987016379422
1	6573	2810	43.011885157491
1	6585	2815	41.204752405536
1	6596	2820	6.858844255429
1	6609	2825	7.981234622867
1	6621	2830	7.897652099434
1	6630	2835	12.781481731632
1	6691	2860	33.660659101644
1	6702	2865	35.865840902724
1	6718	2870	30.21988244586
1	6727	2875	28.692665097067
1	6737	2880	31.014988505873
1	6746	2885	17.756952701012
1	6789	2905	35.203275553637
1	6840	2925	52.748110671947
1	6854	2930	53.863044379796
1	7032	3010	124.7702963279
1	7045	3015	126.24512878017
1	7058	3020	114.40007062556
1	7068	3025	83.356362740869
1	7081	3030	87.697003537288
1	7095	3035	9.476414427023
1	7154	3055	27.998923224742
1	7167	3060	27.433933683242
1	7178	3065	25.220486089432
1	7191	3070	28.498556986524
1	7202	3075	27.30046511701
1	7254	3095	36.139462957824
1	7330	3130	46.781259322806
1	7399	3160	70.1021038275
1	7408	3165	74.559975325243
1	7523	3220	127.83577666509
1	7537	3225	125.64614599687
1	7547	3230	96.455652180951
1	7560	3235	70.11280413245
1	7574	3240	74.582088434348
1	7586	3245	22.131677104922
1	7597	3250	17.022762180223
1	7609	3255	19.359990412962
1	7623	3260	23.570844563972
1	7634	3265	13.376623234585
1	7773	3325	73.252010556952
1	7786	3330	78.110242721211
1	7802	3335	78.27532051755
1	7815	3340	78.962560922354
1	7830	3345	76.065388562426
1	7842	3350	20.225774659723
1	7855	3355	24.164743012895
1	7896	3375	37.032863859215
1	7909	3380	37.6713852258
1	7922	3385	36.580926086341
1	7979	3410	53.04183737672
1	7993	3415	46.703714412062
1	8004	3420	44.700979521897
1	8013	3425	28.390494224305
1	8023	3430	21.66874722319
1	8037	3435	22.530656245007
1	8055	3440	23.97493697653
1	8067	3445	21.553587640863
1	8077	3450	16.645051986944
1	8089	3455	18.606199361112
1	8155	3485	47.106516900096
1	8164	3490	47.264719785675
1	8173	3495	43.865909383015
1	8185	3500	44.870970154234
2	27	15	0
2	184	90	1
2	197	95	1
2	210	100	1
2	220	105	1
2	232	110	1
2	376	170	1
2	390	175	1
2	403	180	1
2	466	210	1
2	582	260	1
2	595	265	1
2	712	315	1
2	767	335	1
2	780	340	1
2	798	345	1
2	851	375	1
2	928	415	1
2	939	420	1
2	993	440	1
2	1120	490	1
2	1131	495	1
2	1193	525	1
2	1206	530	1
2	1215	535	1
2	1228	540	1
2	1240	545	1
2	1292	565	1
2	1301	570	1
2	1311	575	1
2	1392	610	1
2	1405	615	1
2	1415	620	1
2	1424	625	1
2	1440	630	1
2	1661	735	1
2	1676	740	1
2	1690	745	1
2	1706	750	1
2	1717	755	1
2	1879	825	1
2	1886	830	1
2	1897	835	1
2	1908	840	1
2	1922	845	1
2	1932	850	0
2	1945	855	1
2	1961	860	0
2	2112	915	1
2	2122	920	1
2	2136	925	1
2	2147	930	1
2	2214	955	1
2	2227	960	1
2	2239	965	1
2	2252	970	1
2	2271	975	1
2	2284	980	1
2	2367	1010	1
2	2383	1015	1
2	2392	1020	1
2	2402	1025	1
2	2416	1030	1
2	2426	1035	1
2	2626	1120	1
2	2706	1155	1
2	2721	1160	1
2	2738	1165	1
2	2821	1200	1
2	2831	1205	1
2	2842	1210	1
2	2857	1215	1
2	2872	1220	1
2	2882	1225	1
2	2890	1230	0
2	3170	1350	1
2	3186	1355	1
2	3203	1360	1
2	3257	1385	1
2	3267	1390	1
2	3337	1425	1
2	3346	1430	1
2	3360	1435	1
2	3370	1440	1
2	3448	1475	1
2	3457	1480	1
2	3468	1485	1
2	3478	1490	1
2	3494	1495	1
2	3591	1535	1
2	3601	1540	1
2	3609	1545	1
2	3680	1580	1
2	3692	1585	1
2	3703	1590	1
2	3714	1595	1
2	3727	1600	1
2	3782	1625	1
2	3796	1630	1
2	3852	1655	1
2	3863	1660	1
2	3925	1690	1
2	3940	1695	1
2	3978	1715	1
2	3991	1720	1
2	4004	1725	1
2	4069	1750	1
2	4081	1755	1
2	4093	1760	1
2	4105	1765	0
2	4121	1770	1
2	4132	1775	0
2	4142	1780	0
2	4156	1785	0
2	4175	1790	0
2	4184	1795	0
2	4195	1800	1
2	4205	1805	1
2	4215	1810	1
2	4228	1815	0
2	4243	1820	0
2	4258	1825	0
2	4272	1830	0
2	4284	1835	0
2	4292	1840	0
2	4302	1845	0
2	4316	1850	0
2	4394	1880	1
2	4401	1885	1
2	4412	1890	1
2	4424	1895	1
2	4440	1900	1
2	4488	1915	0
2	4498	1920	0
2	4567	1950	1
2	4579	1955	1
2	4594	1960	1
2	4663	1990	1
2	4674	1995	1
2	4682	2000	1
2	4691	2005	1
2	4702	2010	1
2	4785	2045	1
2	5085	2175	1
2	5099	2180	1
2	5147	2200	1
2	5158	2205	1
2	5176	2210	1
2	5187	2215	1
2	5200	2220	1
2	5213	2225	1
2	5327	2275	1
2	5343	2280	1
2	5353	2285	1
2	5366	2290	1
2	5379	2295	1
2	5393	2300	1
2	5450	2325	1
2	5459	2330	1
2	5470	2335	1
2	5509	2355	1
2	5523	2360	1
2	5539	2365	1
2	5663	2425	1
2	5676	2430	1
2	5689	2435	1
2	5701	2440	1
2	5714	2445	1
2	5778	2475	1
2	5797	2480	1
2	5808	2485	1
2	5820	2490	1
2	5833	2495	1
2	5847	2500	1
2	5923	2535	1
2	5941	2540	1
2	5992	2560	1
2	6003	2565	1
2	6175	2640	1
2	6189	2645	1
2	6210	2650	1
2	6221	2655	1
2	6232	2660	1
2	6244	2665	1
2	6301	2695	1
2	6311	2700	1
2	6320	2705	1
2	6333	2710	1
2	6345	2715	1
2	6357	2720	1
2	6369	2725	0
2	6451	2760	1
2	6460	2765	1
2	6538	2795	1
2	6550	2800	1
2	6560	2805	1
2	6573	2810	1
2	6585	2815	1
2	6596	2820	0
2	6609	2825	0
2	6621	2830	0
2	6630	2835	0
2	6691	2860	1
2	6702	2865	1
2	6718	2870	1
2	6727	2875	1
2	6737	2880	1
2	6746	2885	0
2	6789	2905	1
2	6840	2925	1
2	6854	2930	1
2	7032	3010	1
2	7045	3015	1
2	7058	3020	1
2	7068	3025	1
2	7081	3030	1
2	7095	3035	0
2	7154	3055	1
2	7167	3060	1
2	7178	3065	1
2	7191	3070	1
2	7202	3075	1
2	7254	3095	1
2	7330	3130	1
2	7399	3160	1
2	7408	3165	1
2	7523	3220	1
2	7537	3225	1
2	7547	3230	1
2	7560	3235	1
2	7574	3240	1
2	7586	3245	1
2	7597	3250	0
2	7609	3255	0
2	7623	3260	1
2	7634	3265	0
2	7773	3325	1
2	7786	3330	1
2	7802	3335	1
2	7815	3340	1
2	7830	3345	1
2	7842	3350	1
2	7855	3355	1
2	7896	3375	1
2	7909	3380	1
2	7922	3385	1
2	7979	3410	1
2	7993	3415	1
2	8004	3420	1
2	8013	3425	1
2	8023	3430	1
2	8037	3435	1
2	8055	3440	1
2	8067	3445	1
2	8077	3450	0
2	8089	3455	0
2	8155	3485	1
2	8164	3490	1
2	8173	3495	1
2	8185	3500	1
3	29	15	5.701978939627
3	162	80	67.824382955212
3	171	85	64.463326953587
3	182	90	68.707172685262
3	195	95	63.505601395553
3	263	125	90.410954097419
3	317	145	46.246750512578
3	327	150	45.647678683808
3	337	155	50.361044051689
3	348	160	50.718651567182
3	359	165	36.260800952955
3	374	170	18.956082289748
3	405	180	9.74104937353
3	549	245	74.64415046679
3	561	250	76.468511888636
3	571	255	75.173294302317
3	580	260	79.445424410078
3	593	265	84.274407318288
3	608	270	23.336769014512
3	621	275	13.371687383235
3	633	280	14.156793506163
3	647	285	18.866431695583
3	661	290	21.016943869051
3	714	315	42.671375250601
3	728	320	43.761496646223
3	741	325	43.10971891667
3	753	330	35.04267295227
3	765	335	37.27181880703
3	778	340	21.733851002787
3	796	345	17.461680168957
3	916	410	81.449386350467
3	926	415	84.401793226541
3	937	420	82.530078154439
3	1026	455	113.5131193411
3	1040	460	101.74912479863
3	1054	465	54.533871086244
3	1066	470	49.446914418186
3	1079	475	47.981175124207
3	1092	480	23.359973901169
3	1107	485	23.569075120447
3	1118	490	22.061417451267
3	1129	495	23.710258068387
3	1242	545	66.918794198553
3	1313	575	91.677348673772
3	1369	600	111.71723766456
3	1379	605	108.22749269672
3	1444	630	131.8551750867
3	1454	635	84.188334479976
3	1465	640	58.665907748273
3	1475	645	33.190428676901
3	1487	650	35.75783297811
3	1990	870	233.62403461732
3	1996	875	221.41931437939
3	2008	880	226.04335533357
3	2019	885	213.86523837119
3	2035	890	207.60277402083
3	2052	895	18.088956806405
3	2066	900	22.289235739638
3	2080	905	21.514363071796
3	2093	910	22.59797516951
3	2161	935	42.534947165788
3	2180	940	37.806024246177
3	2191	945	40.457984085534
3	2478	1060	150.04024314407
3	2490	1065	151.190933465
3	2507	1070	134.76277398282
3	2520	1075	133.63980910965
3	2535	1080	131.21573873941
3	2612	1115	45.387011028701
3	2657	1135	61.644689854083
3	2752	1170	94.503399710024
3	2760	1175	93.23800924003
3	2772	1180	94.19405860863
3	2784	1185	61.783140507333
3	2796	1190	53.003583899685
3	2846	1210	39.436030614811
3	2861	1215	31.897418938511
3	2939	1250	66.440225698304
3	2947	1255	68.997779266352
3	2955	1260	51.561287210195
3	2967	1265	53.333888355068
3	2978	1270	47.023864869739
3	3025	1290	37.170876030042
3	3038	1295	35.534261167601
3	3086	1315	37.988438121883
3	3098	1320	32.637726431062
3	3109	1325	37.323054021748
3	3121	1330	32.8600973764
3	3172	1350	49.630437608536
3	3188	1355	36.087631241446
3	3205	1360	39.771826758418
3	3280	1395	69.927324743958
3	3288	1400	61.553527774659
3	3298	1405	54.940142356359
3	3306	1410	53.547809674889
3	3316	1415	54.398356935332
3	3508	1500	99.676900934215
3	3519	1505	103.2808207428
3	3531	1510	77.409835378014
3	3731	1600	154.16387575875
3	3743	1605	156.94992614853
3	3749	1610	109.12332732522
3	3758	1615	109.5615016745
3	3767	1620	99.078347476418
3	3780	1625	22.6883989575
3	3875	1665	38.108092529256
3	3882	1670	40.651595952905
3	3893	1675	45.203095902534
3	3901	1680	47.99939666809
3	3910	1685	52.179560142573
3	3942	1695	8.522905693427
3	3995	1720	32.543258973735
3	4008	1725	30.651175664224
3	4095	1760	60.029587686188
3	4107	1765	62.694699504329
3	4158	1785	80.763987377143
3	4232	1815	83.399518337309
3	4247	1820	84.415447507423
3	4426	1895	134.95814485848
3	4442	1900	134.47699824714
3	4452	1905	119.6263107771
3	4469	1910	93.73348751948
3	4629	1975	150.14853475246
3	4643	1980	84.086099650772
3	4713	2015	103.70588915228
3	4720	2020	88.203880725662
3	4729	2025	81.785664711869
3	4743	2030	39.515549811489
3	4756	2035	37.155328416136
3	4765	2040	20.661019993361
3	4781	2045	17.617193422206
3	4888	2090	61.538892821176
3	4899	2095	62.922146670208
3	4937	2115	74.852758548889
3	4947	2120	78.521795496637
3	4961	2125	76.333336858179
3	4976	2130	18.587790645696
3	4987	2135	18.325605796734
3	5001	2140	16.708770233612
3	5017	2145	21.355087065482
3	5087	2175	38.125049287061
3	5101	2180	39.220429378609
3	5665	2425	284.00190728239
3	5678	2430	287.77557400719
3	5691	2435	286.41952654422
3	5703	2440	250.17693285998
3	5716	2445	254.50062788025
3	5730	2450	15.850298428379
3	5737	2455	15.68436814602
3	5750	2460	15.904046243434
3	5799	2480	35.281092337519
3	5810	2485	39.858453873364
3	5822	2490	30.529176637501
3	5835	2495	32.864376252221
3	5849	2500	33.280616792252
3	5862	2505	24.257213074141
3	5872	2510	18.328772657703
3	5882	2515	13.829648929571
3	5943	2540	30.562487552712
3	6026	2575	63.362767229564
3	6036	2580	63.964830545117
3	6045	2585	68.661786105616
3	6054	2590	61.599253204978
3	6065	2595	48.934224588391
3	6111	2615	38.697722700894
3	6388	2730	144.21454693289
3	6396	2735	142.2560737407
3	6405	2740	143.22151392404
3	6473	2770	172.03328553647
3	6486	2775	149.37757550845
3	6498	2780	41.814102685215
3	6512	2785	43.009963377691
3	6524	2790	41.9008615036
3	6536	2795	20.128392652506
3	6548	2800	21.574152379539
3	6558	2805	24.960454698924
3	6571	2810	12.787938490653
3	6646	2840	38.620766031379
3	6653	2845	30.870928364237
3	6664	2850	34.010913270085
3	6677	2855	36.148017269807
3	6689	2860	36.899594582675
3	6700	2865	18.104962905786
3	6806	2910	58.123603607441
3	6816	2915	62.364154648608
3	6826	2920	62.207889103122
3	6838	2925	62.4718080846
3	6852	2930	49.291982771967
3	6925	2960	45.551824207598
3	6981	2990	74.964636384486
3	6997	2995	74.388668685372
3	7047	3015	89.079215817331
3	7099	3035	104.25839468694
3	7111	3040	79.462365945342
3	7120	3045	54.504355263726
3	7134	3050	48.241579549109
3	7332	3130	114.40487813477
3	7384	3155	117.70622484688
3	7453	3185	143.5488073406
3	7468	3190	141.94390278348
3	7480	3195	140.85271307697
3	7487	3200	69.018297772097
3	7497	3205	47.947980060021
3	7507	3210	23.055042179646
3	7562	3235	33.027539178345
3	7576	3240	34.710516846069
3	7657	3275	61.102028286404
3	7666	3280	59.753654567807
3	7743	3315	93.920348796383
3	7760	3320	82.405738870634
3	7771	3325	76.862960074976
3	7784	3330	49.783128087419
3	7800	3335	54.694605288981
3	7813	3340	24.71712636862
3	7828	3345	18.114421562303
3	7840	3350	18.315040880367
3	7853	3355	13.129243360255
3	7867	3360	13.470040010839
3	7926	3385	37.858422980274
3	7960	3405	52.501222472727
3	7977	3410	55.188073954281
3	8041	3435	70.586153699726
3	8254	3530	157.62066777836
3	8331	3560	172.86077839509
3	8388	3585	177.03946080693
3	8401	3590	170.50481222516
3	8412	3595	152.33039861722
3	8424	3600	57.713117433699
4	29	15	0
4	162	80	1
4	171	85	1
4	182	90	1
4	195	95	1
4	263	125	1
4	317	145	1
4	327	150	1
4	337	155	1
4	348	160	1
4	359	165	1
4	374	170	0
4	405	180	0
4	549	245	1
4	561	250	1
4	571	255	1
4	580	260	1
4	593	265	1
4	608	270	1
4	621	275	0
4	633	280	0
4	647	285	0
4	661	290	1
4	714	315	1
4	728	320	1
4	741	325	1
4	753	330	1
4	765	335	1
4	778	340	1
4	796	345	0
4	916	410	1
4	926	415	1
4	937	420	1
4	1026	455	1
4	1040	460	1
4	1054	465	1
4	1066	470	1
4	1079	475	1
4	1092	480	1
4	1107	485	1
4	1118	490	1
4	1129	495	1
4	1242	545	1
4	1313	575	1
4	1369	600	1
4	1379	605	1
4	1444	630	1
4	1454	635	1
4	1465	640	1
4	1475	645	1
4	1487	650	1
4	1990	870	1
4	1996	875	1
4	2008	880	1
4	2019	885	1
4	2035	890	1
4	2052	895	0
4	2066	900	1
4	2080	905	1
4	2093	910	1
4	2161	935	1
4	2180	940	1
4	2191	945	1
4	2478	1060	1
4	2490	1065	1
4	2507	1070	1
4	2520	1075	1
4	2535	1080	1
4	2612	1115	1
4	2657	1135	1
4	2752	1170	1
4	2760	1175	1
4	2772	1180	1
4	2784	1185	1
4	2796	1190	1
4	2846	1210	1
4	2861	1215	1
4	2939	1250	1
4	2947	1255	1
4	2955	1260	1
4	2967	1265	1
4	2978	1270	1
4	3025	1290	1
4	3038	1295	1
4	3086	1315	1
4	3098	1320	1
4	3109	1325	1
4	3121	1330	1
4	3172	1350	1
4	3188	1355	1
4	3205	1360	1
4	3280	1395	1
4	3288	1400	1
4	3298	1405	1
4	3306	1410	1
4	3316	1415	1
4	3508	1500	1
4	3519	1505	1
4	3531	1510	1
4	3731	1600	1
4	3743	1605	1
4	3749	1610	1
4	3758	1615	1
4	3767	1620	1
4	3780	1625	1
4	3875	1665	1
4	3882	1670	1
4	3893	1675	1
4	3901	1680	1
4	3910	1685	1
4	3942	1695	0
4	3995	1720	1
4	4008	1725	1
4	4095	1760	1
4	4107	1765	1
4	4158	1785	1
4	4232	1815	1
4	4247	1820	1
4	4426	1895	1
4	4442	1900	1
4	4452	1905	1
4	4469	1910	1
4	4629	1975	1
4	4643	1980	1
4	4713	2015	1
4	4720	2020	1
4	4729	2025	1
4	4743	2030	1
4	4756	2035	1
4	4765	2040	1
4	4781	2045	0
4	4888	2090	1
4	4899	2095	1
4	4937	2115	1
4	4947	2120	1
4	4961	2125	1
4	4976	2130	0
4	4987	2135	0
4	5001	2140	0
4	5017	2145	1
4	5087	2175	1
4	5101	2180	1
4	5665	2425	1
4	5678	2430	1
4	5691	2435	1
4	5703	2440	1
4	5716	2445	1
4	5730	2450	0
4	5737	2455	0
4	5750	2460	0
4	5799	2480	1
4	5810	2485	1
4	5822	2490	1
4	5835	2495	1
4	5849	2500	1
4	5862	2505	1
4	5872	2510	0
4	5882	2515	0
4	5943	2540	1
4	6026	2575	1
4	6036	2580	1
4	6045	2585	1
4	6054	2590	1
4	6065	2595	1
4	6111	2615	1
4	6388	2730	1
4	6396	2735	1
4	6405	2740	1
4	6473	2770	1
4	6486	2775	1
4	6498	2780	1
4	6512	2785	1
4	6524	2790	1
4	6536	2795	1
4	6548	2800	1
4	6558	2805	1
4	6571	2810	0
4	6646	2840	1
4	6653	2845	1
4	6664	2850	1
4	6677	2855	1
4	6689	2860	1
4	6700	2865	0
4	6806	2910	1
4	6816	2915	1
4	6826	2920	1
4	6838	2925	1
4	6852	2930	1
4	6925	2960	1
4	6981	2990	1
4	6997	2995	1
4	7047	3015	1
4	7099	3035	1
4	7111	3040	1
4	7120	3045	1
4	7134	3050	1
4	7332	3130	1
4	7384	3155	1
4	7453	3185	1
4	7468	3190	1
4	7480	3195	1
4	7487	3200	1
4	7497	3205	1
4	7507	3210	1
4	7562	3235	1
4	7576	3240	1
4	7657	3275	1
4	7666	3280	1
4	7743	3315	1
4	7760	3320	1
4	7771	3325	1
4	7784	3330	1
4	7800	3335	1
4	7813	3340	1
4	7828	3345	0
4	7840	3350	0
4	7853	3355	0
4	7867	3360	0
4	7926	3385	1
4	7960	3405	1
4	7977	3410	1
4	8041	3435	1
4	8254	3530	1
4	8331	3560	1
4	8388	3585	1
4	8401	3590	1
4	8412	3595	1
4	8424	3600	1
5	35	17.906200353476	1
5	40	19.964090334689	1
5	55	28.901528651882	1
5	64	32.110074515273	1
5	76	39.692754385224	1
5	92	46.799577785693	1
5	105	51.001251313754	1
5	115	55.798991200595	1
5	116	58.787721584687	1
5	123	61.015314059943	1
5	124	63.887976093649	1
5	165	80.549086427954	1
5	177	85.589182655055	1
5	178	88.808087663068	1
5	190	90.209472705463	1
5	191	90.953034051724	1
5	205	98.486210718087	1
5	241	111.131640440971	1
5	242	113.04514518528	1
5	258	123.666331170288	1
5	269	125.208405370777	1
5	270	125.642257782475	1
5	293	138.888537425857	1
5	294	138.990099719835	1
5	296	139.891360979759	1
5	461	206.242849479219	1
5	462	207.129477354945	1
5	473	210.679066991065	1
5	485	218.912662497699	1
5	493	221.249025329749	1
5	494	221.508588090664	1
5	544	244.909480758223	1
5	552	245.071264781449	1
5	554	245.329679310426	1
5	567	251.334533843136	1
5	588	261.320393680586	1
5	630	278.788677731756	1
5	643	283.458979394782	1
5	644	284.987003903854	1
5	686	300.509425939001	1
5	690	303.811941337747	1
5	696	305.115141984629	1
5	706	311.677681949457	1
5	709	314.868624977421	1
5	720	316.031250069345	1
5	721	317.240848293201	1
5	723	318.866928383082	1
5	735	323.285856663247	1
5	738	324.247163867458	1
5	746	326.768563533715	1
5	772	335.944880548413	1
5	773	336.380423464705	1
5	787	343.297005795461	1
5	790	344.674645480653	1
5	803	345.000209804586	1
5	847	372.066250260255	1
5	860	378.230652575409	1
5	861	378.297278799551	1
5	895	399.390603803331	1
5	901	401.158586679646	1
5	904	404.738813269614	1
5	1014	449.813555564347	1
5	1021	450.10619505908	1
5	1022	451.263299918856	1
5	1036	458.804376076991	1
5	1051	463.476891735307	1
5	1073	471.698995129483	1
5	1088	479.3532372242	1
5	1099	483.22744912172	1
5	1103	484.098442704635	1
5	1114	488.423133251781	1
5	1126	491.491154300486	1
5	1145	498.222448016312	1
5	1151	500.065362714366	1
5	1154	504.535369727766	1
5	1161	508.61546254759	1
5	1162	509.128222012608	1
5	1187	524.297934874596	1
5	1224	538.70797817555	1
5	1236	542.550291062505	1
5	1237	543.032997457643	1
5	1249	546.060166365844	1
5	1250	546.228335970445	1
5	1251	549.922936070141	1
5	1257	550.001581689016	1
5	1258	550.354091430819	1
5	1264	554.286886890277	1
5	1285	561.658998014195	1
5	1286	561.892672522872	1
5	1288	564.522826501673	1
5	1297	565.412210290955	1
5	1298	568.781927512049	1
5	1308	573.890519249097	1
5	1325	581.983824581195	1
5	1336	587.464787386242	1
5	1364	599.938660599448	1
5	1396	610.369020225873	1
5	1410	616.221198875942	1
5	1411	616.933713604195	1
5	1412	619.316292709058	1
5	1421	621.660271167254	1
5	1435	627.359248200577	1
5	1436	628.716598032724	1
5	1470	641.433893379225	1
5	1471	641.801425266319	1
5	1481	646.53193397259	1
5	1483	649.2339474606	1
5	1484	649.937673237743	1
5	1493	652.314371585951	1
5	1513	663.601755539733	1
5	1535	671.462962240764	1
5	1543	675.184853547753	1
5	1550	680.097495261365	1
5	1553	682.096471623752	1
5	1567	692.010534525121	1
5	1569	693.473287531077	1
5	1579	696.4274636331	1
5	1582	698.8730056862	1
5	1591	703.7423986436	1
5	1598	705.832856938318	1
5	1606	711.471659106184	1
5	1607	713.063624186463	1
5	1618	716.986407671053	1
5	1628	723.181590207944	1
5	1630	723.305756246676	1
5	1641	727.388719690916	1
5	1642	728.222698481528	1
5	1643	728.345766701883	1
5	1653	731.117109068949	1
5	1712	752.885009283402	1
5	1713	753.361431697764	1
5	1724	756.451693583464	1
5	1741	767.351795819243	1
5	1750	772.212040661642	1
5	1762	776.109715805795	1
5	1763	776.726763163332	1
5	1765	776.910258514738	1
5	1767	777.870736395481	1
5	1776	780.335130237316	1
5	1778	781.209681537795	1
5	1800	792.080846073466	1
5	1801	792.478696848932	1
5	1802	794.720343381991	1
5	1824	800.681604592403	1
5	1837	807.414741035084	1
5	1838	809.229976807054	1
5	1849	811.162447717272	1
5	1850	813.538494911199	1
5	1851	813.564510575236	1
5	1905	837.937348957643	1
5	1942	851.564676889748	1
5	1955	857.665070732419	1
5	1958	859.049781859059	1
5	1971	861.183522337808	1
5	1974	863.149608772762	1
5	1985	867.603877782218	1
5	2004	878.722791860969	1
5	2005	879.770614289598	1
5	2027	885.117269581438	1
5	2059	896.515022985162	1
5	2061	897.176080984305	1
5	2088	906.892083765938	1
5	2106	913.371472848431	1
5	2130	920.202438696529	1
5	2131	920.208480205919	1
5	2133	924.03617561729	1
5	2208	951.17879280716	1
5	2223	958.783172345327	1
5	2263	972.452462702882	1
5	2264	973.323308808415	1
5	2268	974.65015859729	1
5	2333	998.321277485413	1
5	2358	1006.4665338699	1
5	2375	1011.415393289689	1
5	2376	1012.566022130474	1
5	2397	1020.095277845877	1
5	2434	1038.625231032485	1
5	2461	1052.030206481221	1
5	2483	1060.317179084563	1
5	2496	1065.177061049952	1
5	2500	1067.120228881108	1
5	2502	1069.411601696384	1
5	2530	1076.744144111218	1
5	2531	1077.610831717356	1
5	2532	1079.704628478635	1
5	2546	1084.488466086564	1
5	2555	1087.752184189276	1
5	2567	1094.786836915657	1
5	2573	1095.353860526618	1
5	2582	1100.876094551544	1
5	2592	1105.319614689604	1
5	2593	1108.058958159481	1
5	2649	1131.680705428887	1
5	2675	1143.569527677471	1
5	2684	1145.780278537114	1
5	2686	1146.015807724556	1
5	2687	1147.067892240725	1
5	2688	1148.779734305037	1
5	2699	1152.458700940098	1
5	2701	1154.570718187113	1
5	2757	1172.657044116399	1
5	2793	1186.474426319339	1
5	2816	1196.873002146491	1
5	2817	1198.271786158451	1
5	2818	1198.468387408095	1
5	2879	1224.139979703956	1
5	2897	1232.051682955402	1
5	2898	1233.770059880364	1
5	2908	1239.805415684876	1
5	2932	1246.815300419869	1
5	2963	1263.590122316678	1
5	2964	1264.68874104419	1
5	2999	1278.641294592641	1
5	3047	1298.35612471721	1
5	3077	1311.712748069294	1
5	3081	1314.763249580314	1
5	3223	1369.663548491744	1
5	3232	1373.400641869354	1
5	3254	1382.326712457279	1
5	3283	1396.534717236501	1
5	3285	1399.071530516878	1
5	3303	1406.518727367423	1
5	3312	1411.32591289692	1
5	3322	1417.36005800337	1
5	3324	1419.546577283526	1
5	3331	1420.187320213016	1
5	3332	1420.714137674897	1
5	3333	1421.242339052678	1
5	3334	1423.155218423014	1
5	3352	1430.269689730396	1
5	3354	1432.472418631201	1
5	3357	1434.020584760053	1
5	3392	1446.955869503394	1
5	3409	1453.233644912888	1
5	3430	1460.979561529129	1
5	3432	1463.236169457018	1
5	3444	1471.915518361151	1
5	3453	1476.291176289025	1
5	3454	1477.400094535689	1
5	3462	1480.058924194584	1
5	3464	1482.064600942379	1
5	3474	1487.1505474061	1
5	3491	1494.920716298971	1
5	3527	1508.01687968388	1
5	3573	1527.862193569032	1
5	3575	1529.639526569605	1
5	3596	1538.073509269233	1
5	3606	1544.751234940675	1
5	3633	1557.728975470848	1
5	3675	1575.190793996747	1
5	3697	1586.148922242008	1
5	3698	1586.668010590556	1
5	3710	1591.8775350596	1
5	3773	1620.273712026257	1
5	3774	1620.826895806274	1
5	3775	1622.457824081196	1
5	3776	1623.077475749412	1
5	3777	1623.826553719406	1
5	3787	1626.039578090131	1
5	3788	1626.220729404465	1
5	3819	1637.776923951569	1
5	3919	1687.540098371515	1
5	3933	1693.671739910832	1
5	3935	1694.960134032637	1
5	3949	1697.659949878672	1
5	3951	1698.412586483454	1
5	3958	1700.419426298424	1
5	3960	1703.59375823177	1
5	3967	1706.099462173139	1
5	3968	1708.164036551279	1
5	3986	1717.490660324021	1
5	4016	1728.134447907053	1
5	4027	1733.645898630647	1
5	4149	1780.732446090845	1
5	4152	1782.486563541185	1
5	4167	1787.242296109335	1
5	4171	1789.562697732268	1
5	4189	1795.397422481087	1
5	4192	1799.316641624217	1
5	4211	1809.26757602728	1
5	4225	1813.607911468835	1
5	4268	1829.564926712719	1
5	4269	1829.885650675265	1
5	4281	1833.946804249058	1
5	4289	1839.086180747872	1
5	4299	1843.891278147635	1
5	4331	1854.985594266066	1
5	4348	1860.584568637215	1
5	4350	1861.762297286876	1
5	4351	1862.471876255247	1
5	4352	1862.890332549995	1
5	4353	1863.963954853667	1
5	4354	1864.735999222254	1
5	4420	1892.20009600607	1
5	4521	1931.804711382497	1
5	4522	1931.997189556942	1
5	4524	1933.936344084052	1
5	4536	1937.150371507972	1
5	4537	1938.123974936987	1
5	4562	1949.343121371909	1
5	4574	1953.753664853282	1
5	4585	1955.363713279341	1
5	4716	2017.158238310093	1
5	4749	2030.808275601971	1
5	4762	2038.187308481645	1
5	4776	2043.90192960778	1
5	4777	2044.21001911143	1
5	4907	2095.04428891857	1
5	4909	2097.280685842179	1
5	4912	2098.272369653057	1
5	4934	2112.601354060534	1
5	4954	2121.382733387074	1
5	4968	2125.837210785304	1
5	4971	2126.728442115046	1
5	4972	2127.802673982724	1
5	4973	2129.092846213842	1
5	4982	2131.220734874933	1
5	4996	2138.21784881054	1
5	5026	2147.551272166938	1
5	5027	2147.991539877836	1
5	5045	2156.084333420492	1
5	5056	2164.127273041051	1
5	5057	2164.533284343077	1
5	5080	2172.986821627208	1
5	5093	2176.164244829371	1
5	5153	2204.126513959759	1
5	5181	2212.94180540595	1
5	5267	2248.990584271452	1
5	5274	2251.221035652552	1
5	5297	2264.308923755032	1
5	5303	2267.593514598233	1
5	5305	2268.518997951694	1
5	5316	2271.047228081852	1
5	5319	2272.911589460919	1
5	5335	2276.353274821987	1
5	5337	2277.71213829519	1
5	5350	2284.888017679853	1
5	5358	2285.952276834461	1
5	5359	2286.928320949349	1
5	5373	2291.716267930385	1
5	5375	2293.591116035342	1
5	5436	2319.725001391404	1
5	5446	2321.658816200106	1
5	5456	2329.042161678293	1
5	5465	2331.322862103391	1
5	5476	2337.53486183684	1
5	5491	2345.315245640017	1
5	5504	2354.509234630669	1
5	5571	2383.21402575584	1
5	5622	2409.077881232882	1
5	5636	2412.514444341446	1
5	5637	2412.831799221108	1
5	5659	2421.626127094539	1
5	5673	2429.177573611562	1
5	5708	2440.249492677242	1
5	5725	2447.286870961106	1
5	5734	2450.314680329641	1
5	5756	2460.519623975479	1
5	5765	2465.061478841477	1
5	5774	2474.038678053382	1
5	5775	2474.592409738387	1
5	5784	2475.19880051417	1
5	5788	2475.826731787924	1
5	5815	2485.753430672836	1
5	5816	2486.038439997375	1
5	5830	2492.37098930316	1
5	5867	2507.1069712534	1
5	5868	2508.785558328896	1
5	5899	2522.570485561475	1
5	5934	2539.084917706312	1
5	6033	2578.37472392921	1
5	6062	2594.922830652348	1
5	6075	2597.373430837784	1
5	6128	2621.777794576511	1
5	6129	2622.622688749326	1
5	6138	2625.893357829561	1
5	6141	2629.376856515568	1
5	6150	2631.584162227286	1
5	6152	2633.026044351079	1
5	6170	2639.99078496668	1
5	6182	2641.679183212884	1
5	6198	2645.653387843045	1
5	6201	2646.64967233575	1
5	6203	2647.258708500156	1
5	6205	2648.976525345341	1
5	6297	2692.736969677189	1
5	6317	2704.160513026749	1
5	6327	2707.315574780362	1
5	6330	2709.816897317494	1
5	6338	2710.87861125286	1
5	6352	2716.391367588527	1
5	6411	2740.183903166085	1
5	6412	2741.933870570709	1
5	6434	2751.971395496705	1
5	6438	2754.174339944617	1
5	6448	2758.52697631388	1
5	6476	2770.377187829086	1
5	6479	2773.053104130868	1
5	6492	2775.242176490154	1
5	6504	2780.465153643747	1
5	6519	2789.052000085332	1
5	6520	2789.200539515857	1
5	6521	2789.600011929859	1
5	6532	2792.454263407479	1
5	6544	2798.398163184122	1
5	6545	2798.93619798307	1
5	6566	2805.147600461944	1
5	6567	2807.717123247359	1
5	6568	2808.854110183558	1
5	6601	2820.709363462561	1
5	6605	2822.658109752381	1
5	6614	2825.025713327304	1
5	6616	2827.681062643949	1
5	6674	2853.41339593672	1
5	6684	2857.319867821079	1
5	6685	2857.388615310423	1
5	6696	2862.363735302665	1
5	6708	2865.402250992666	1
5	6711	2867.264284026728	1
5	6712	2869.009591482455	1
5	6713	2869.160802800513	1
5	6733	2878.614128236177	1
5	6764	2894.222001386264	1
5	6782	2901.494821914669	1
5	6801	2909.874074902291	1
5	6845	2925.079377706997	1
5	6849	2927.511384543428	1
5	6872	2938.570755068532	1
5	6874	2939.998679566926	1
5	6880	2941.618991630539	1
5	6894	2949.590545996468	1
5	6895	2949.618095810855	1
5	6955	2976.580351944616	1
5	7038	3010.789185705168	1
5	7065	3023.955071900626	1
5	7117	3042.548155306878	1
5	7157	3056.668711601063	1
5	7197	3072.52621493314	1
5	7216	3081.634022028791	1
5	7217	3081.995877250221	1
5	7218	3082.664413931554	1
5	7221	3083.948505565263	1
5	7232	3087.902746851676	1
5	7246	3092.575981650209	1
5	7404	3161.437248708088	1
5	7421	3168.89253401381	1
5	7439	3179.977430251816	1
5	7447	3182.900400647052	1
5	7448	3183.216939883367	1
5	7484	3196.442119831658	1
5	7504	3207.18824168147	1
5	7531	3221.928699751662	1
5	7553	3230.354699819792	1
5	7555	3230.765103155239	1
5	7571	3237.669761273466	1
5	7582	3243.117897138084	1
5	7630	3262.385850844282	1
5	7663	3279.646038049816	1
5	7681	3285.192972769781	1
5	7683	3286.739661104709	1
5	7693	3291.652920726575	1
5	7701	3296.676141830724	1
5	7704	3298.183333658097	1
5	7917	3380.841980670939	1
5	7956	3403.12846563736	1
5	7966	3405.686849457529	1
5	7973	3409.347318110152	1
5	7986	3411.080113299459	1
5	7998	3417.355257961185	1
5	8009	3422.028060390787	1
5	8033	3432.480105907446	1
5	8047	3435.501142625282	1
5	8052	3438.474735134724	1
5	8074	3449.135261095096	1
5	8098	3455.705926083448	1
5	8113	3460.661138354239	1
5	8114	3463.130869685859	1
5	8115	3463.50305721918	1
5	8122	3467.891912152727	1
5	8134	3471.785934300596	1
5	8169	3490.895112883801	1
5	8179	3496.165758682937	1
5	8181	3498.078454658277	1
5	8193	3502.840311595398	1
5	8200	3505.181062870084	1
5	8203	3507.901124785298	1
5	8341	3564.124560605447	1
5	8364	3574.375889154559	1
5	8370	3575.200572312584	1
5	8372	3576.111067013379	1
5	8376	3579.907153069346	1
5	8384	3580.885503866816	1
5	8396	3585.581756776556	1
6	68	35	30.50719805758
6	79	40	25.749471378158
6	150	75	56.986100811594
6	199	95	76.530295680973
6	1680	740	716.30723313943
6	1694	745	702.08112379372
6	1753	775	725.4046728706
6	1771	780	698.76841728218
6	1782	785	676.08834780383
6	1794	790	46.447305563995
6	1805	795	45.4857266929
6	1819	800	24.711999533931
6	1831	805	16.877276056524
6	1842	810	21.004137074124
6	1855	815	19.805267387558
6	1865	820	14.266365595541
6	1949	855	45.565104638466
6	1965	860	19.585554044856
6	1980	865	22.054234209446
6	1988	870	6.177016188308
6	2021	885	7.395950800919
6	2037	890	5.155220181171
6	2054	895	5.328041182688
6	2068	900	7.123464066708
6	2082	905	11.921174288405
6	2095	910	16.297236676611
6	2182	940	42.991837672462
6	2193	945	45.878388732127
6	2254	970	68.327031743334
6	2273	975	65.734543912986
6	2286	980	68.776121213576
6	2299	985	43.155616861342
6	2308	990	37.343592147717
6	2325	995	24.857684882183
6	2337	1000	8.485799608198
6	2348	1005	11.570459272774
6	2363	1010	6.783367311576
6	2476	1060	54.419399588022
6	2488	1065	58.014943810536
6	2624	1120	111.79529546123
6	2692	1150	134.38049863934
6	2704	1155	137.5912352777
6	2719	1160	97.606944025669
6	2736	1165	99.554776310465
6	2786	1185	64.242284232992
6	2798	1190	32.948877175625
6	2911	1240	80.69482812248
6	2922	1245	82.363173742361
6	2982	1270	93.872758527611
6	4304	1845	650.99062793625
6	4318	1850	655.72799748446
6	4335	1855	612.99120131675
6	4343	1860	614.56910660894
6	4357	1865	594.12247996273
6	4367	1870	22.936359896499
6	4380	1875	24.484595364838
6	4444	1900	30.297224338875
6	4454	1905	35.067372243575
6	4471	1910	39.347017770418
6	4528	1935	62.874734388348
6	4541	1940	60.733334484609
6	4823	2060	157.17244443806
6	4838	2065	158.14293356694
6	4989	2135	221.5523067841
6	5003	2140	203.80379043476
6	5019	2145	202.56430101682
6	5032	2150	89.278289586451
6	5040	2155	88.623157340645
6	5050	2160	20.769574421363
6	5060	2165	18.10439426307
6	5071	2170	17.515263739082
6	5083	2175	18.845574245624
6	5097	2180	23.261514162988
6	5145	2200	27.101405885146
6	5156	2205	27.403963584386
6	5174	2210	17.872685812868
6	5185	2215	7.827575290629
6	5198	2220	10.756852532214
6	5211	2225	7.634719795811
6	5280	2255	37.015607819104
6	5558	2375	154.71257666016
6	5566	2380	156.98692716185
6	5574	2385	155.46844088387
6	5584	2390	160.41735609416
6	5643	2415	159.17213216498
6	6900	2950	560.07370291661
6	6911	2955	563.52549783368
6	6923	2960	560.86175653752
6	6999	2995	585.4708504225
6	7011	3000	583.3087538596
6	7020	3005	49.618831375561
6	7030	3010	28.224386190287
6	7043	3015	25.196262030286
6	7136	3050	53.482785486933
6	7151	3055	43.470390115466
6	7165	3060	32.047668536119
6	7176	3065	34.303235157044
6	7189	3070	38.519481337978
6	7200	3075	24.107393747522
6	7211	3080	23.292575343049
6	7225	3085	24.722375608316
6	7237	3090	5.426284213109
6	7250	3095	8.977711963267
6	7844	3350	256.98752922252
6	7857	3355	249.21906568771
6	7924	3385	277.91397148907
6	7937	3390	271.97371130169
6	8069	3445	325.38287856563
6	8079	3450	91.43623401695
6	8091	3455	92.700100571305
6	8106	3460	72.4242286619
6	8316	3555	150.96332475126
6	8329	3560	106.05691431459
7	68	35	1
7	79	40	1
7	150	75	1
7	199	95	1
7	1680	740	1
7	1694	745	1
7	1753	775	1
7	1771	780	1
7	1782	785	1
7	1794	790	1
7	1805	795	1
7	1819	800	1
7	1831	805	0
7	1842	810	1
7	1855	815	0
7	1865	820	0
7	1949	855	1
7	1965	860	0
7	1980	865	1
7	1988	870	0
7	2021	885	0
7	2037	890	0
7	2054	895	0
7	2068	900	0
7	2082	905	0
7	2095	910	0
7	2182	940	1
7	2193	945	1
7	2254	970	1
7	2273	975	1
7	2286	980	1
7	2299	985	1
7	2308	990	1
7	2325	995	1
7	2337	1000	0
7	2348	1005	0
7	2363	1010	0
7	2476	1060	1
7	2488	1065	1
7	2624	1120	1
7	2692	1150	1
7	2704	1155	1
7	2719	1160	1
7	2736	1165	1
7	2786	1185	1
7	2798	1190	1
7	2911	1240	1
7	2922	1245	1
7	2982	1270	1
7	4304	1845	1
7	4318	1850	1
7	4335	1855	1
7	4343	1860	1
7	4357	1865	1
7	4367	1870	1
7	4380	1875	1
7	4444	1900	1
7	4454	1905	1
7	4471	1910	1
7	4528	1935	1
7	4541	1940	1
7	4823	2060	1
7	4838	2065	1
7	4989	2135	1
7	5003	2140	1
7	5019	2145	1
7	5032	2150	1
7	5040	2155	1
7	5050	2160	1
7	5060	2165	0
7	5071	2170	0
7	5083	2175	0
7	5097	2180	1
7	5145	2200	1
7	5156	2205	1
7	5174	2210	0
7	5185	2215	0
7	5198	2220	0
7	5211	2225	0
7	5280	2255	1
7	5558	2375	1
7	5566	2380	1
7	5574	2385	1
7	5584	2390	1
7	5643	2415	1
7	6900	2950	1
7	6911	2955	1
7	6923	2960	1
7	6999	2995	1
7	7011	3000	1
7	7020	3005	1
7	7030	3010	1
7	7043	3015	1
7	7136	3050	1
7	7151	3055	1
7	7165	3060	1
7	7176	3065	1
7	7189	3070	1
7	7200	3075	1
7	7211	3080	1
7	7225	3085	1
7	7237	3090	0
7	7250	3095	0
7	7844	3350	1
7	7857	3355	1
7	7924	3385	1
7	7937	3390	1
7	8069	3445	1
7	8079	3450	1
7	8091	3455	1
7	8106	3460	1
7	8316	3555	1
7	8329	3560	1
8	75	35.59258269545	1
8	102	50.064685085385	1
8	104	50.875367532615	1
8	106	52.132577192989	1
8	108	54.575362439529	1
8	131	66.2199293106	1
8	132	66.742735439476	1
8	133	67.053311891808	1
8	168	84.554380314081	1
8	179	89.848093889552	1
8	271	127.23242060216	1
8	275	128.859122679805	1
8	291	138.095760934814	1
8	308	142.51140614461	1
8	320	145.350926912011	1
8	321	146.613026876467	1
8	342	157.720561368838	1
8	367	166.125172391568	1
8	454	202.096270289551	1
8	484	218.056561546965	1
8	495	224.033754378376	1
8	503	226.308313602335	1
8	523	235.991199789791	1
8	530	239.671855289724	1
8	543	240.609450045738	1
8	553	245.149270182361	1
8	558	249.453888365764	1
8	566	251.008727390613	1
8	568	254.844125663475	1
8	577	259.301018548025	1
8	618	274.874853839048	1
8	626	275.222942194416	1
8	629	278.479095854004	1
8	640	282.324694859486	1
8	654	285.368859428172	1
8	656	287.297297898398	1
8	658	289.715489835846	1
8	670	294.152999478265	1
8	678	295.750872752629	1
8	705	311.016796100596	1
8	707	314.667934426791	1
8	708	314.797923152757	1
8	734	322.635672609932	1
8	736	323.343882783908	1
8	749	329.652946151344	1
8	760	330.435325003266	1
8	761	330.589956461069	1
8	792	344.944297505214	1
8	811	350.654552022235	1
8	812	350.985012075702	1
8	815	354.576244476242	1
8	848	373.546363391681	1
8	902	403.954918981553	1
8	903	404.597820167934	1
8	911	405.867877059685	1
8	948	423.310722542403	1
8	949	423.368188793446	1
8	960	427.18030721452	1
8	972	432.837201052542	1
8	983	436.912292707023	1
8	986	438.391802073263	1
8	987	438.676634735597	1
8	1009	447.661215194561	1
8	1032	456.429788419679	1
8	1035	458.770320685853	1
8	1037	458.818997732556	1
8	1063	469.949417679765	1
8	1075	474.257755138741	1
8	1087	478.322246944669	1
8	1089	479.948101297112	1
8	1097	480.637867456759	1
8	1098	481.432927540756	1
8	1170	514.129760605602	1
8	1186	524.069457879822	1
8	1188	524.565565512241	1
8	1225	539.95331024576	1
8	1359	596.271095863124	1
8	1374	602.981194569037	1
8	1386	608.953644286577	1
8	1398	612.465877545995	1
8	1399	612.766519391645	1
8	1511	662.879060362677	1
8	1514	664.092787549475	1
8	1528	668.108471409081	1
8	1536	674.273915045167	1
8	1537	674.408318142718	1
8	1552	681.351704512054	1
8	1580	698.426329024212	1
8	1592	704.131545695479	1
8	1599	709.226311600861	1
8	1608	713.200675781189	1
8	1610	714.00309631798	1
8	1631	723.703337367372	1
8	1672	738.927926716994	1
8	1779	781.760310281213	1
8	1788	786.316039321564	1
8	1799	790.664116125749	1
8	1811	795.575307047796	1
8	1812	795.777414936062	1
8	1815	798.624595505415	1
8	1816	798.939712726702	1
8	1826	802.158336755963	1
8	1852	813.575306928059	1
8	2028	887.063537789499	1
8	2062	898.408383222617	1
8	2077	904.663126525911	1
8	2087	905.02620681644	1
8	2101	910.596780498772	1
8	2103	912.24731396904	1
8	2170	937.066611872264	1
8	2176	938.606305850167	1
8	2198	948.305614648121	1
8	2200	949.418808908297	1
8	2209	952.255649506626	1
8	2211	954.995211695135	1
8	2222	957.955466107568	1
8	2236	964.781753120469	1
8	2247	968.560460902375	1
8	2249	969.267721427323	1
8	2262	971.010969577194	1
8	2265	973.528100154465	1
8	2266	973.767786152376	1
8	2280	978.594735399122	1
8	2305	988.379307608327	1
8	2322	994.783289223668	1
8	2334	999.942892738253	1
8	2378	1013.978221978464	1
8	2441	1040.438165709935	1
8	2446	1043.740535181342	1
8	2470	1056.854662790833	1
8	2473	1059.023493738367	1
8	2485	1064.331260319849	1
8	2498	1066.033651277528	1
8	2512	1070.758741230587	1
8	2513	1071.091766916792	1
8	2514	1071.420082842677	1
8	2515	1072.954969755388	1
8	2517	1074.122538285579	1
8	2554	1087.59282671049	1
8	2556	1089.325661756136	1
8	2575	1095.602915113618	1
8	2576	1099.550298087808	1
8	2584	1102.754428445296	1
8	2605	1114.094380399475	1
8	2606	1114.120211829996	1
8	2607	1114.972098623427	1
8	2638	1125.878575772474	1
8	2647	1130.462690958955	1
8	2651	1131.947426252861	1
8	2662	1135.332734814637	1
8	2664	1139.13631782381	1
8	2671	1141.110944284267	1
8	2676	1144.071818304156	1
8	2685	1145.842811374586	1
8	2698	1152.344257084748	1
8	2733	1164.471545776873	1
8	2767	1178.432614232238	1
8	2768	1179.048531093677	1
8	2769	1179.947086389894	1
8	2805	1191.453353220049	1
8	2815	1195.611567983575	1
8	2827	1203.299212135941	1
8	2828	1204.65832973101	1
8	2933	1247.105116139177	1
8	2942	1250.399658873365	1
8	2961	1260.966650294783	1
8	3054	1303.771741591342	1
8	3055	1304.755683921945	1
8	3064	1308.426378003607	1
8	3066	1309.69705756791	1
8	3114	1325.057500769032	1
8	3128	1332.589114080344	1
8	3130	1333.281723290898	1
8	3141	1336.469881887169	1
8	3154	1342.82381248406	1
8	3155	1343.504595350921	1
8	3198	1359.52244556575	1
8	3231	1371.276669119689	1
8	3234	1374.855901356282	1
8	3240	1375.169419217545	1
8	3243	1375.431549311806	1
8	3250	1380.698227379512	1
8	3251	1381.522761159217	1
8	3252	1381.676130537633	1
8	3253	1381.679452718752	1
8	3294	1400.517313126605	1
8	3323	1417.624996857432	1
8	3356	1433.200120141344	1
8	3393	1447.951753499666	1
8	3406	1450.863130155425	1
8	3431	1462.697757521196	1
8	3538	1514.958257674274	1
8	3539	1514.984903749675	1
8	3556	1520.010262931162	1
8	3557	1520.556985498847	1
8	3558	1520.728760534639	1
8	3559	1520.820071032098	1
8	3561	1521.252634914419	1
8	3574	1528.511227531917	1
8	3585	1531.913276794606	1
8	3643	1560.556720493735	1
8	3654	1566.148610227556	1
8	3662	1570.258635931011	1
8	3677	1577.770032970386	1
8	3755	1613.81076193144	1
8	3763	1616.768651750052	1
8	3764	1617.90705167767	1
8	3809	1633.548337018354	1
8	3817	1635.609583888206	1
8	3820	1639.197610337292	1
8	3828	1640.506418885639	1
8	3838	1648.26027727771	1
8	3890	1674.464232973029	1
8	3916	1685.397177278473	1
8	3987	1717.512674265079	1
8	4061	1747.639140704034	1
8	4062	1748.033545619157	1
8	4063	1748.105315808992	1
8	4153	1783.093076612803	1
8	4168	1788.459064687906	1
8	4169	1788.972882205442	1
8	4534	1935.816002107381	1
8	4538	1939.084001896347	1
8	4548	1940.198963992395	1
8	4588	1957.626729096313	1
8	4589	1958.222054553458	1
8	4649	1980.896863417043	1
8	4650	1981.557643337702	1
8	4651	1983.465850577611	1
8	4739	2028.602798455377	1
8	4750	2031.88246439785	1
8	4761	2036.295261411906	1
8	4778	2044.465924192966	1
8	4792	2049.009375060344	1
8	4802	2052.441005999446	1
8	4805	2054.519346523458	1
8	4817	2056.364948264521	1
8	4818	2059.989120519344	1
8	4845	2066.396838034382	1
8	4846	2068.907191711877	1
8	4863	2076.232136069434	1
8	4864	2077.598387772396	1
8	4865	2077.77272738299	1
8	4867	2079.565829924304	1
8	4875	2084.243589686896	1
8	4895	2090.985639277453	1
8	4896	2092.55645877406	1
8	4908	2095.569825158091	1
8	4911	2098.221791445896	1
8	4919	2101.705235177884	1
8	4925	2107.053003440719	1
8	4933	2111.525294141717	1
8	4943	2117.910479417506	1
8	4953	2120.611177831951	1
8	4956	2123.141692239274	1
8	4984	2133.808743133423	1
8	4994	2135.088425463797	1
8	5008	2140.524658309141	1
8	5037	2154.435301363101	1
8	5067	2168.995572862362	1
8	5078	2170.34131646105	1
8	5125	2190.630092970522	1
8	5139	2195.442723290235	1
8	5140	2198.822994492767	1
8	5164	2206.354162327776	1
8	5167	2207.753770523362	1
8	5169	2209.142640593364	1
8	5195	2219.593889289302	1
8	5223	2228.445092392587	1
8	5231	2230.301827682355	1
8	5232	2231.616807191595	1
8	5236	2233.98831638988	1
8	5253	2242.754759817736	1
8	5254	2243.37615800618	1
8	5255	2244.217308785972	1
8	5264	2246.876546411935	1
8	5288	2257.674256661105	1
8	5289	2259.360926520601	1
8	5295	2260.737216670403	1
8	5296	2261.685136082148	1
8	5317	2271.132872578316	1
8	5318	2271.627128171905	1
8	5349	2284.393719057313	1
8	5376	2294.23694482398	1
8	5389	2299.115706749923	1
8	5412	2306.288089076274	1
8	5413	2307.770475413618	1
8	5424	2311.009445825047	1
8	5434	2317.135897116433	1
8	5437	2319.962681499089	1
8	5447	2323.980700412938	1
8	5532	2364.505793301005	1
8	5555	2374.614929589442	1
8	5593	2393.617554268576	1
8	5612	2403.190898100758	1
8	5621	2406.49430438502	1
8	5632	2410.085690806968	1
8	5638	2413.609751924666	1
8	5649	2415.697986669453	1
8	5671	2426.33435234457	1
8	5794	2479.004062984017	1
8	5916	2530.375172651905	1
8	5932	2537.141049354916	1
8	5933	2538.187141097566	1
8	5975	2551.569655605126	1
8	5977	2553.77370443054	1
8	6042	2584.530460398986	1
8	6077	2598.718916750473	1
8	6092	2605.102412216459	1
8	6119	2618.042086782341	1
8	6120	2618.366950335082	1
8	6127	2621.042873825823	1
8	6140	2627.429143067329	1
8	6163	2635.772919484949	1
8	6165	2636.666597935105	1
8	6168	2638.173830046325	1
8	6184	2644.293456293958	1
8	6267	2677.493537500254	1
8	6276	2684.048299984848	1
8	6308	2698.445315843653	1
8	6328	2708.591531888973	1
8	6329	2709.46030297115	1
8	6353	2716.976552519293	1
8	6382	2729.346543012288	1
8	6392	2733.158565062472	1
8	6414	2742.665142216128	1
8	6422	2747.06788783685	1
8	6424	2748.378574418551	1
8	6433	2750.486624438462	1
8	6435	2752.217213390398	1
8	6437	2753.628965659112	1
8	6447	2758.003965657614	1
8	6495	2779.305389937637	1
8	6506	2783.143482742575	1
8	6509	2784.455334696089	1
8	6530	2790.536410984033	1
8	6670	2851.719636988384	1
8	6683	2857.139688008748	1
8	6754	2889.904390184988	1
8	6761	2893.041391002833	1
8	6762	2893.184708932767	1
8	6781	2900.970964441543	1
8	6798	2908.313122635546	1
8	6810	2912.729293577097	1
8	6811	2912.987292188319	1
8	6812	2914.32242389493	1
8	6823	2917.053911935211	1
8	6835	2924.891883623179	1
8	6883	2944.483850540707	1
8	6891	2947.593049706745	1
8	6905	2950.550369070449	1
8	6918	2958.047676898439	1
8	6932	2962.478682204763	1
8	6933	2964.129094799042	1
8	6939	2965.251100804851	1
8	6964	2981.885207642142	1
8	6965	2982.599227446683	1
8	6966	2982.876099185251	1
8	6987	2990.300150346916	1
8	6991	2994.610423389986	1
8	7004	2995.902375832688	1
8	7014	3000.608670319625	1
8	7027	3006.422053645664	1
8	7146	3054.102918098267	1
8	7162	3059.915750539266	1
8	7269	3103.633491952806	1
8	7282	3106.820308675709	1
8	7294	3110.006999926917	1
8	7315	3124.461534479385	1
8	7323	3125.090689366307	1
8	7324	3126.937800662957	1
8	7327	3129.341217526551	1
8	7346	3135.841623999401	1
8	7347	3137.538843577591	1
8	7356	3142.072192178482	1
8	7360	3143.399954195703	1
8	7368	3145.922414858115	1
8	7415	3165.645564538283	1
8	7416	3165.797937765806	1
8	7417	3167.221959863448	1
8	7419	3167.802916605659	1
8	7432	3173.809717168684	1
8	7474	3193.050879174152	1
8	7502	3205.028579802196	1
8	7520	3218.25475441911	1
8	7617	3256.949291135155	1
8	7652	3271.32506931268	1
8	7653	3271.54624312679	1
8	7674	3282.193382424463	1
8	7675	3284.370747597344	1
8	7682	3285.434059783454	1
8	7694	3294.963970120664	1
8	7714	3300.031242469655	1
8	7726	3307.101271742684	1
8	7728	3307.793389521368	1
8	7738	3313.327742762385	1
8	7752	3317.105326315411	1
8	7754	3318.164181147066	1
8	7808	3338.608504575863	1
8	7823	3344.39436822679	1
8	7887	3370.1881472235	1
8	7888	3371.722160916252	1
8	7890	3372.096210514901	1
8	7892	3372.565799887178	1
8	7905	3377.903714268029	1
8	7972	3409.163736592139	1
8	7974	3409.48293593343	1
8	7988	3413.951736302765	1
8	7989	3414.740551645086	1
8	8050	3437.965748569367	1
8	8051	3438.008158627787	1
8	8126	3469.667119722764	1
8	8146	3476.37037511742	1
8	8247	3529.655138655211	1
8	8263	3532.199173657851	1
8	8265	3533.487755334172	1
8	8284	3542.728141369988	1
8	8287	3544.787429205801	1
8	8297	3545.600561158865	1
8	8298	3546.460792198573	1
8	8299	3548.479904345293	1
8	8311	3553.949246466023	1
8	8324	3557.409600150016	1
8	8362	3571.558206812128	1
8	8383	3580.367276743607	1
8	8385	3581.356075095256	1
8	8421	3598.906875811779	1
9	85	40.268740611132	1
9	93	47.71001473989	1
9	94	48.436404876351	1
9	95	48.531247722356	1
9	103	50.49010177574	1
9	114	55.225085161615	1
9	122	60.950779935115	1
9	130	65.698252852599	1
9	142	71.678791849884	1
9	143	73.895811992987	1
9	145	74.585955435129	1
9	157	76.480765256542	1
9	274	128.786202800365	1
9	283	134.290432350819	1
9	290	135.99870318595	1
9	292	138.534703802233	1
9	309	142.55869080124	1
9	310	143.98879566378	1
9	423	186.020639608618	1
9	426	188.311504028409	1
9	463	209.000552830961	1
9	474	213.780384950573	1
9	481	216.430399341256	1
9	482	216.599333269016	1
9	483	216.95771019058	1
9	524	237.206944384603	1
9	542	240.569246968771	1
9	557	248.0215713372	1
9	642	283.112736193545	1
9	689	303.543747610097	1
9	724	319.297938965238	1
9	750	329.696835275568	1
9	786	343.214478577441	1
9	791	344.905252151663	1
9	793	344.988082623771	1
9	833	362.913934477717	1
9	859	377.82493785508	1
9	875	385.24615026833	1
9	912	406.255447399569	1
9	923	413.115936810116	1
9	962	427.488197612206	1
9	982	435.803026515577	1
9	984	437.378826659156	1
9	985	438.083666081231	1
9	1000	442.565312106334	1
9	1008	445.482430961511	1
9	1010	447.872020899067	1
9	1012	448.87129858867	1
9	1034	457.002121649404	1
9	1050	461.659115127031	1
9	1076	474.514284387443	1
9	1104	484.358577237484	1
9	1115	488.715847307676	1
9	1144	498.193897095288	1
9	1160	506.151677709254	1
9	1163	509.206965515682	1
9	1169	514.067019970992	1
9	1177	518.354195484061	1
9	1178	519.211888620925	1
9	1210	531.187787567872	1
9	1211	533.383172495811	1
9	1220	536.317016529211	1
9	1234	540.111840400454	1
9	1235	540.630194583664	1
9	1260	552.26303259564	1
9	1261	552.428052520922	1
9	1263	553.677806604171	1
9	1271	555.137536962815	1
9	1274	557.497377401675	1
9	1276	558.11095243826	1
9	1287	562.928915919706	1
9	1289	564.784724523711	1
9	1307	573.689397898168	1
9	1334	586.358758797025	1
9	1337	589.801328237246	1
9	1347	591.493058830739	1
9	1349	594.456345920422	1
9	1402	614.846324003203	1
9	1432	625.519835975908	1
9	1555	683.320305343702	1
9	1556	683.569883355833	1
9	1577	695.157513668661	1
9	1581	698.730684605551	1
9	1589	702.506743694353	1
9	1590	703.653329552536	1
9	1600	709.305615544108	1
9	1619	719.875149617341	1
9	1627	721.655978525159	1
9	1632	723.987463657347	1
9	1638	726.227903499224	1
9	1639	726.696680437274	1
9	1651	730.189585467669	1
9	1652	730.232325560894	1
9	1655	731.868377467526	1
9	1669	737.738728151498	1
9	1670	737.752262524391	1
9	1673	739.040186856097	1
9	1687	743.626545840657	1
9	1699	746.531589117954	1
9	1714	754.354871871442	1
9	1723	755.64716811503	1
9	1740	766.560737561457	1
9	1764	776.830999980775	1
9	1766	777.393649712668	1
9	1768	779.296204455478	1
9	1777	780.711566634715	1
9	1787	785.050342349411	1
9	1813	796.973419065565	1
9	1814	797.282499808806	1
9	1825	800.927533415711	1
9	1827	803.780063356088	1
9	1828	804.818579787147	1
9	1848	810.401172654935	1
9	1862	815.637133932393	1
9	1873	821.339756307211	1
9	1874	823.920773581895	1
9	1882	825.591148997192	1
9	1883	828.424658796441	1
9	1891	830.718415309673	1
9	1903	835.2018444926	1
9	1916	840.55225694074	1
9	1917	840.743700929602	1
9	2015	883.958470610709	1
9	2030	887.70361494938	1
9	2031	889.284800478591	1
9	2116	916.360362286794	1
9	2132	921.396725728743	1
9	2167	936.842214306647	1
9	2168	936.885853788181	1
9	2172	937.412734491333	1
9	2173	937.754928868249	1
9	2220	955.024352417003	1
9	2245	966.326354653882	1
9	2260	970.330898068186	1
9	2281	979.878673160705	1
9	2315	990.559642792282	1
9	2316	990.566564355312	1
9	2318	991.059561856307	1
9	2372	1010.269143373631	1
9	2377	1013.286537335777	1
9	2387	1017.120164246415	1
9	2408	1026.373092479345	1
9	2409	1026.559322940861	1
9	2411	1029.323319608383	1
9	2413	1029.892622894913	1
9	2423	1034.091790401839	1
9	2453	1047.781906878206	1
9	2462	1053.688933871163	1
9	2472	1058.221440257261	1
9	2553	1086.058982437956	1
9	2557	1089.699096852927	1
9	2558	1089.863124626544	1
9	2565	1092.570487094862	1
9	2566	1093.519945882177	1
9	2583	1102.229015989489	1
9	2604	1112.926403604401	1
9	2632	1124.879119100587	1
9	2648	1130.795816717378	1
9	2650	1131.917852735033	1
9	2672	1141.422500323572	1
9	2689	1149.380410888964	1
9	2700	1153.690719025449	1
9	2714	1159.222484350252	1
9	2716	1159.453931879843	1
9	2729	1161.421343864684	1
9	2732	1164.435398404707	1
9	2746	1169.376141670535	1
9	2853	1213.670492713162	1
9	2854	1214.569313154026	1
9	2887	1229.481698319567	1
9	2896	1230.70904573027	1
9	2916	1241.817781742764	1
9	3075	1310.950981631659	1
9	3078	1312.646170769962	1
9	3079	1312.810627118983	1
9	3080	1312.916490278262	1
9	3152	1340.600331790732	1
9	3153	1342.141819547051	1
9	3165	1345.132906420888	1
9	3178	1351.172635828538	1
9	3197	1359.122307028735	1
9	3220	1368.434192090592	1
9	3229	1371.146090559205	1
9	3230	1371.203190991923	1
9	3241	1375.196335144108	1
9	3262	1386.956614569465	1
9	3263	1387.982199447025	1
9	3264	1389.010545046835	1
9	3410	1454.344553877235	1
9	3419	1458.365856366332	1
9	3445	1474.768957261797	1
9	3463	1481.934560171362	1
9	3488	1493.145433456905	1
9	3513	1501.001093082975	1
9	3515	1503.259804113882	1
9	3516	1504.127963482827	1
9	3526	1507.46205765195	1
9	3571	1525.386786971435	1
9	3597	1538.23620475152	1
9	3598	1538.964504742363	1
9	3615	1545.433695275459	1
9	3624	1552.990914064695	1
9	3625	1554.413468223476	1
9	3635	1559.655929311029	1
9	3656	1568.124125122209	1
9	3667	1573.640514312933	1
9	3676	1575.485177086711	1
9	3685	1580.112457868007	1
9	3687	1581.885939995433	1
9	3689	1584.975298088989	1
9	3709	1590.748024315467	1
9	3738	1602.315059990247	1
9	3829	1641.006089989793	1
9	3858	1655.831436810073	1
9	3869	1661.748155835625	1
9	3988	1718.905171111894	1
9	4037	1736.50077731631	1
9	4058	1745.127937439851	1
9	4064	1749.89750955672	1
9	4074	1751.991050674015	1
9	4076	1754.756695620762	1
9	4117	1768.974094601721	1
9	4126	1770.466523829268	1
9	4166	1785.781074254724	1
9	4180	1792.241748143719	1
9	4181	1793.934188448207	1
9	4200	1800.169276616722	1
9	4201	1801.797857653422	1
9	4212	1809.777822764974	1
9	4238	1817.869575767367	1
9	4239	1818.800832026824	1
9	4277	1830.83800424757	1
9	4280	1832.525542898316	1
9	4313	1849.393591928112	1
9	4377	1872.607182686318	1
9	4389	1879.549399041228	1
9	4397	1882.075357629206	1
9	4408	1887.429871634076	1
9	4418	1891.022077358899	1
9	4421	1892.550265732529	1
9	4433	1897.144221633883	1
9	4435	1898.820784848448	1
9	4437	1899.36979263148	1
9	4561	1948.714934756862	1
9	4572	1950.138482798345	1
9	4601	1963.156485751318	1
9	4602	1964.191220417599	1
9	4611	1965.445233412408	1
9	4622	1970.946522226086	1
9	4624	1974.272187306303	1
9	4687	2001.930105687417	1
9	4699	2008.923686797816	1
9	4740	2029.025866486161	1
9	4752	2032.453749922811	1
9	4753	2034.597407297544	1
9	4804	2054.500824114116	1
9	4806	2054.856139363345	1
9	4815	2056.155874697297	1
9	4833	2063.902963210369	1
9	4843	2065.393792017259	1
9	4854	2073.050713815384	1
9	4857	2074.39326545685	1
9	4866	2078.811380924172	1
9	5012	2142.226263081146	1
9	5013	2142.449763094166	1
9	5014	2144.048948342403	1
9	5055	2163.670593580076	1
9	5065	2166.674247649715	1
9	5066	2167.018835233511	1
9	5068	2169.621437916413	1
9	5126	2191.410232390692	1
9	5151	2200.93594162915	1
9	5165	2206.519219230879	1
9	5168	2208.7257565617	1
9	5171	2209.771541969742	1
9	5207	2222.65235609089	1
9	5220	2226.066011324856	1
9	5233	2232.39264084207	1
9	5237	2234.232577827956	1
9	5243	2235.974559228087	1
9	5244	2237.883598141177	1
9	5251	2240.06763490514	1
9	5252	2242.656227791576	1
9	5276	2251.980383487137	1
9	5277	2252.59439390061	1
9	5304	2268.226976497874	1
9	5306	2268.807865333503	1
9	5315	2270.748675861814	1
9	5322	2273.206513526116	1
9	5336	2277.676336155586	1
9	5338	2277.875600609563	1
9	5339	2279.447313529388	1
9	5372	2290.518552444831	1
9	5386	2295.662710101707	1
9	5402	2303.42961424579	1
9	5445	2321.657436180614	1
9	5466	2331.329253200422	1
9	5467	2332.878008201278	1
9	5485	2340.188342954441	1
9	5492	2345.60564596181	1
9	5493	2345.909830166381	1
9	5515	2356.478228626147	1
9	5517	2357.947726186556	1
9	5531	2362.92218885875	1
9	5534	2364.893737955189	1
9	5547	2368.997928024744	1
9	5580	2389.388243952845	1
9	5635	2411.977740382971	1
9	5650	2416.553963664047	1
9	5724	2446.423387667121	1
9	5726	2449.450582866209	1
9	5787	2475.799430140235	1
9	5791	2478.343963473875	1
9	5793	2478.888537189735	1
9	5917	2532.252404545927	1
9	5929	2535.228884424923	1
9	5960	2546.901616948193	1
9	5961	2547.544457194975	1
9	5962	2548.568007153748	1
9	5963	2549.269692777949	1
9	5964	2549.300806476674	1
9	5974	2550.595520900639	1
9	5998	2564.899728601536	1
9	6008	2565.419901261409	1
9	6009	2566.707397356849	1
9	6021	2570.656672138156	1
9	6022	2573.632077219367	1
9	6032	2577.186398648393	1
9	6093	2606.854463323813	1
9	6094	2608.948935217003	1
9	6105	2614.088949475135	1
9	6139	2626.433933968259	1
9	6149	2630.700439695239	1
9	6151	2632.981552110381	1
9	6199	2646.009564933053	1
9	6202	2646.894753488369	1
9	6215	2651.202537548025	1
9	6227	2659.812868983464	1
9	6239	2664.259057943803	1
9	6259	2672.436106442019	1
9	6260	2672.763435880395	1
9	6275	2681.232103132878	1
9	6287	2689.121727637905	1
9	6296	2690.49409387583	1
9	6316	2704.043544848963	1
9	6339	2710.957061131577	1
9	6341	2711.066764907766	1
9	6354	2718.420831554247	1
9	6366	2724.668654146171	1
9	6377	2725.093945426684	1
9	6383	2729.620514243165	1
9	6425	2749.349908336093	1
9	6432	2750.371140322111	1
9	6436	2753.615378793835	1
9	6439	2754.993068365561	1
9	6446	2756.485340813036	1
9	6456	2760.555114250429	1
9	6457	2763.336770052668	1
9	6618	2829.346058561561	1
9	6673	2853.055293093724	1
9	6772	2897.825324201797	1
9	6784	2904.897462733188	1
9	6799	2908.340205143954	1
9	6800	2908.691544011491	1
9	6822	2916.588247097574	1
9	6847	2926.1319114404	1
9	6848	2926.964371054893	1
9	6861	2932.550393452047	1
9	6862	2932.922674643678	1
9	6863	2934.924770608201	1
9	6869	2935.727807159556	1
9	6892	2949.001173345944	1
9	6893	2949.377345212307	1
9	6906	2952.384066256391	1
9	6947	2972.769458862371	1
9	6954	2976.535795160356	1
9	6962	2980.449037587486	1
9	6967	2984.083135919883	1
9	7016	3003.698908235577	1
9	7040	3011.772635992766	1
9	7054	3017.693741119603	1
9	7130	3048.290131482009	1
9	7131	3048.888489541744	1
9	7173	3064.724390692083	1
9	7183	3065.241480019662	1
9	7184	3066.935507625803	1
9	7185	3067.376595371908	1
9	7186	3069.369623699871	1
9	7196	3070.274135885766	1
9	7208	3078.632684351129	1
9	7220	3083.541875533343	1
9	7231	3086.822114942559	1
9	7233	3088.781944658693	1
9	7268	3101.708198076965	1
9	7270	3103.888518416658	1
9	7278	3105.413617142669	1
9	7279	3105.49726677403	1
9	7281	3106.028540905867	1
9	7285	3108.258490426262	1
9	7295	3110.031802755192	1
9	7296	3113.553429825447	1
9	7314	3120.070167688544	1
9	7339	3131.770666844865	1
9	7354	3140.224383570215	1
9	7355	3141.228072304883	1
9	7357	3142.258346789991	1
9	7359	3143.302082180876	1
9	7369	3146.164179840391	1
9	7403	3160.838888935004	1
9	7422	3168.930788519719	1
9	7430	3171.001691537822	1
9	7431	3173.542767613762	1
9	7438	3175.715232842901	1
9	7533	3223.482121151016	1
9	7544	3229.907703163984	1
9	7554	3230.421601321623	1
9	7570	3237.633984768426	1
9	7593	3248.825277122558	1
9	7643	3265.841937108914	1
9	7651	3270.363155537766	1
9	7654	3272.150633420685	1
9	7684	3286.748166341032	1
9	7685	3288.09127215114	1
9	7692	3291.018103804868	1
9	7702	3297.683060422951	1
9	7706	3299.639958370424	1
9	7716	3303.438135586677	1
9	7737	3310.042716025915	1
9	7750	3316.932815719731	1
9	7755	3318.812982144935	1
9	7902	3375.594139245803	1
9	7904	3376.895750426423	1
9	7918	3381.061296764572	1
9	7919	3384.60397638516	1
9	7933	3389.901849462781	1
9	7948	3398.125913058709	1
9	7955	3400.075647104912	1
9	7970	3408.46961334928	1
9	8019	3425.279245987832	1
9	8020	3425.890920085589	1
9	8064	3443.041825560274	1
9	8085	3452.649736912112	1
9	8111	3460.103654489181	1
9	8123	3468.033550879782	1
9	8124	3468.653805943051	1
9	8133	3470.442375579007	1
9	8135	3471.94345374581	1
9	8160	3488.567467686312	1
9	8170	3491.737773235543	1
9	8178	3495.247565902058	1
9	8180	3497.31411190292	1
9	8182	3499.525181645729	1
9	8191	3502.177513031361	1
9	8202	3507.521883877903	1
9	8205	3508.430310903831	1
9	8215	3511.400242957027	1
9	8244	3526.358548891801	1
9	8246	3528.05938460029	1
9	8248	3529.781433605004	1
9	8295	3545.138279308298	1
9	8296	3545.534280915949	1
9	8309	3551.060666317892	1
9	8375	3579.512486282594	1
9	8395	3585.576793213792	1
10	107	54.402231824725	1
10	134	68.791806931113	1
10	144	74.286369268868	1
10	167	82.111150444951	1
10	240	110.573703400986	1
10	248	116.408071033729	1
10	249	116.73955804114	1
10	250	117.961535281549	1
10	260	123.857482916875	1
10	272	127.56127766911	1
10	276	129.479078739603	1
10	282	130.185732307407	1
10	295	139.392144664842	1
10	322	148.220850026907	1
10	354	163.482258311329	1
10	365	165.360952523363	1
10	368	168.839949827865	1
10	380	170.150236036242	1
10	383	173.370759577855	1
10	396	175.165395657204	1
10	422	185.702633681956	1
10	424	186.464101808228	1
10	425	186.975704882491	1
10	427	189.838012639633	1
10	452	200.96258592576	1
10	472	210.161249851147	1
10	492	220.171182328777	1
10	504	226.572853347839	1
10	505	227.88449989367	1
10	506	227.943416053262	1
10	522	235.182386463204	1
10	525	237.255449176499	1
10	526	237.534799440942	1
10	529	239.604694054305	1
10	531	239.69817140641	1
10	556	247.59023501694	1
10	614	271.985899456908	1
10	616	272.975738133578	1
10	617	273.100679900142	1
10	641	282.742480584541	1
10	657	288.182002752613	1
10	669	293.371253130059	1
10	677	295.240069599142	1
10	687	300.935357852506	1
10	688	302.148950320865	1
10	697	309.922265009909	1
10	732	320.535998279619	1
10	737	324.178617493291	1
10	759	330.273614219198	1
10	788	344.376793961273	1
10	810	350.031386357216	1
10	813	351.033597332645	1
10	814	354.357636080403	1
10	823	358.700464737732	1
10	832	360.764114071366	1
10	846	371.31855794328	1
10	857	376.295876160113	1
10	858	377.376357243084	1
10	867	382.186416876034	1
10	868	382.988087348467	1
10	882	390.568431997592	1
10	883	394.008149389897	1
10	884	394.028430996502	1
10	894	399.129366436276	1
10	913	407.762533334987	1
10	958	425.807238359906	1
10	961	427.249801911647	1
10	971	432.824239021182	1
10	988	439.798584477498	1
10	998	441.593391069381	1
10	1007	445.311307028262	1
10	1011	448.152159446974	1
10	1023	451.712199775098	1
10	1048	461.107791946148	1
10	1074	474.070034990065	1
10	1084	476.884160999151	1
10	1085	477.660588926676	1
10	1101	483.37956582227	1
10	1102	484.072499929385	1
10	1139	495.788699579848	1
10	1152	502.361310070269	1
10	1176	517.726686184195	1
10	1199	526.322032743137	1
10	1200	527.818674655229	1
10	1212	534.322861792529	1
10	1222	536.528635846177	1
10	1248	545.861838197081	1
10	1270	555.009548976374	1
10	1272	555.711927561149	1
10	1273	555.772473786457	1
10	1277	559.149253137319	1
10	1284	560.552132768205	1
10	1327	583.753532747954	1
10	1335	587.395420613118	1
10	1346	591.440319088782	1
10	1348	594.11981306548	1
10	1360	596.355512578467	1
10	1362	597.679423945159	1
10	1363	599.821961966058	1
10	1400	613.667684380248	1
10	1420	620.227499785672	1
10	1434	627.134795184913	1
10	1437	629.303119461782	1
10	1449	632.792807205938	1
10	1460	636.458933899331	1
10	1462	637.165899462995	1
10	1472	643.31949371815	1
10	1480	645.051660355625	1
10	1482	648.018313196928	1
10	1496	653.973220463911	1
10	1497	654.07066692867	1
10	1503	658.028712401687	1
10	1504	658.832362604524	1
10	1512	663.317627675052	1
10	1524	665.928184197107	1
10	1525	666.057324419236	1
10	1526	667.485169021752	1
10	1544	678.433402594543	1
10	1551	680.462034313878	1
10	1568	693.357599967808	1
10	1578	695.359507625105	1
10	1588	702.096751743559	1
10	1609	713.264950999053	1
10	1611	714.926254116946	1
10	1617	715.079762982002	1
10	1625	720.119830684424	1
10	1626	720.159407416955	1
10	1629	723.242372859571	1
10	1640	727.023204098522	1
10	1644	729.627098422875	1
10	1654	731.724495040221	1
10	1656	732.901524372744	1
10	1657	733.516337207184	1
10	1658	734.03989857433	1
10	1671	738.3434721119	1
10	1711	752.431574168625	1
10	1731	760.648340344654	1
10	1732	761.364583863581	1
10	1734	763.9557231041	1
10	1742	767.889138681399	1
10	1749	771.382156516131	1
10	1761	775.507636636702	1
10	1791	789.784223190022	1
10	2075	904.499026430901	1
10	2104	913.159866122629	1
10	2105	913.311906091451	1
10	2117	917.434764707344	1
10	2118	917.58517868502	1
10	2156	933.573472472048	1
10	2166	935.90923860435	1
10	2171	937.160505006365	1
10	2174	937.939600936915	1
10	2175	938.278880327155	1
10	2177	939.538254250625	1
10	2224	959.608354488417	1
10	2267	973.857993389343	1
10	2389	1017.820077549658	1
10	2407	1026.339735571749	1
10	2410	1026.731484577214	1
10	2412	1029.343630793953	1
10	2435	1039.85209871435	1
10	2442	1041.238636359	1
10	2443	1041.363959296766	1
10	2444	1041.56803179852	1
10	2445	1041.605513520763	1
10	2452	1046.709675616026	1
10	2454	1049.333477836395	1
10	2460	1051.70278573137	1
10	2471	1057.809186615898	1
10	2499	1066.456008370794	1
10	2501	1069.035416983425	1
10	2528	1075.872445578439	1
10	2544	1083.992497797414	1
10	2564	1092.347430673382	1
10	2574	1095.397784629762	1
10	2585	1103.898404276082	1
10	2603	1110.506354806983	1
10	2619	1117.189660000739	1
10	2652	1133.597329365829	1
10	2670	1140.748426107117	1
10	2673	1141.889659223109	1
10	2677	1144.727322142268	1
10	2766	1177.091356416391	1
10	2779	1183.546169944322	1
10	2781	1184.053293861273	1
10	2838	1205.843377008604	1
10	2851	1210.235854461095	1
10	2905	1235.046018185575	1
10	2907	1238.316235998166	1
10	2931	1246.154974063476	1
10	2934	1248.057622613945	1
10	2943	1251.436134192747	1
10	2962	1263.079763628649	1
10	2998	1277.101330431229	1
10	3007	1282.064176020458	1
10	3008	1284.73465596029	1
10	3030	1292.109747533141	1
10	3032	1292.738281976966	1
10	3033	1292.946092570955	1
10	3061	1306.882535734381	1
10	3062	1307.498243268934	1
10	3063	1307.653947936182	1
10	3065	1309.055005326708	1
10	3067	1309.718600475942	1
10	3076	1310.982052360533	1
10	3092	1318.905480894698	1
10	3104	1323.346901405487	1
10	3127	1332.503766306006	1
10	3129	1333.192591523717	1
10	3139	1335.349008184463	1
10	3179	1352.100333712994	1
10	3193	1355.492931455406	1
10	3194	1355.560935335346	1
10	3219	1367.693563130933	1
10	3221	1368.995688478377	1
10	3233	1374.778192309157	1
10	3242	1375.213018197576	1
10	3274	1392.049409758552	1
10	3311	1410.512778364619	1
10	3313	1413.008637131521	1
10	3343	1425.949305463372	1
10	3380	1443.013871776785	1
10	3390	1445.897416552261	1
10	3395	1448.250238933304	1
10	3396	1449.7747189049	1
10	3404	1450.064836060709	1
10	3405	1450.243801352792	1
10	3408	1452.257036176264	1
10	3429	1460.731043298996	1
10	3485	1491.789115180933	1
10	3487	1492.361488827893	1
10	3490	1494.852014336365	1
10	3502	1498.28335012397	1
10	3503	1499.658761692764	1
10	3514	1503.188332561983	1
10	3528	1508.213763676146	1
10	3546	1515.985221773254	1
10	3547	1516.618325661727	1
10	3548	1519.393975887676	1
10	3563	1523.920527596603	1
10	3587	1533.159060698175	1
10	3616	1546.606157640258	1
10	3617	1547.715572730579	1
10	3632	1557.180646897874	1
10	3644	1563.527313563452	1
10	3653	1565.144461940542	1
10	3663	1570.353871435021	1
10	3664	1570.452143220912	1
10	3665	1571.226814799352	1
10	3668	1573.774466986035	1
10	3686	1580.824688439725	1
10	3688	1582.934865375494	1
10	3699	1586.914634220467	1
10	3711	1594.98876819288	1
10	3721	1595.035865225676	1
10	3722	1595.966425881633	1
10	3746	1606.815285586386	1
10	3790	1627.935221178383	1
10	3804	1630.503437358004	1
10	3837	1647.27905967265	1
10	3839	1649.79693342002	1
10	3879	1665.354437458419	1
10	3906	1684.739240475781	1
10	3907	1684.921225925208	1
10	3920	1689.999575886602	1
10	3950	1697.888481707426	1
10	3975	1711.699273282923	1
10	4000	1721.765994562092	1
10	4001	1724.623771329433	1
10	4013	1725.303368828234	1
10	4024	1730.156315827317	1
10	4036	1736.378041216569	1
10	4038	1737.976847268452	1
10	4040	1739.224440706818	1
10	4048	1740.058153479138	1
10	4087	1757.05042531065	1
10	4088	1758.869978456474	1
10	4113	1766.629707281892	1
10	4114	1767.985622829601	1
10	4150	1781.138178004652	1
10	4170	1789.254180386915	1
10	4172	1789.879115212237	1
10	4191	1798.268329155655	1
10	4202	1804.996635093165	1
10	4224	1812.878625771502	1
10	4240	1819.937450280568	1
10	4252	1820.137511391783	1
10	4254	1823.62723768147	1
10	4266	1827.510402954235	1
10	4278	1831.205208151925	1
10	4311	1847.176563546869	1
10	4328	1851.321972720991	1
10	4329	1851.976759505454	1
10	4330	1853.093664172403	1
10	4398	1883.484588504291	1
10	4406	1885.240380647261	1
10	4409	1888.30130678843	1
10	4419	1891.391971151186	1
10	4434	1897.444904138281	1
10	4436	1899.291672677366	1
10	4464	1908.441255433245	1
10	4465	1908.77102163942	1
10	4481	1914.542494057858	1
10	4510	1926.163132483982	1
10	4511	1926.245064071907	1
10	4512	1928.554770696219	1
10	4523	1933.702115120124	1
10	4559	1945.544950933136	1
10	4603	1964.534632751061	1
10	4612	1967.013122281402	1
10	4613	1967.181390738075	1
10	4634	1975.18078490857	1
10	4637	1977.774852364444	1
10	4638	1977.780436397029	1
10	4659	1985.170968850706	1
10	4660	1989.22992081142	1
10	4669	1992.710300432424	1
10	4671	1994.311606141587	1
10	4698	2006.97459129684	1
10	4725	2020.333932441542	1
10	4726	2021.550405848841	1
10	4734	2025.000514059445	1
10	4748	2030.164593891345	1
10	4772	2040.087405747682	1
10	4774	2040.769362492734	1
10	4793	2049.952338381642	1
10	4801	2050.169248541241	1
10	4803	2053.389937327035	1
10	4816	2056.252405470301	1
10	4829	2062.318491898024	1
10	4830	2062.417932434815	1
10	4856	2073.720638056261	1
10	4873	2081.863529789979	1
10	4874	2082.568905799628	1
10	4883	2085.342946132489	1
10	4884	2087.677424674966	1
10	4885	2089.781235811975	1
10	4894	2090.877317532761	1
10	4910	2097.780986976452	1
10	4913	2099.602125462131	1
10	4944	2119.327164051117	1
10	4952	2120.120635561341	1
10	4955	2122.617776458163	1
10	4966	2125.054621539439	1
10	4967	2125.079328112864	1
10	4969	2126.081485260091	1
10	4970	2126.676666147956	1
10	4983	2132.643930062563	1
10	4998	2139.369341247018	1
10	5234	2233.205142657688	1
10	5265	2247.127944448735	1
10	5275	2251.815537177723	1
10	5287	2256.918652576825	1
10	5307	2269.926781205491	1
10	5320	2272.945125894391	1
10	5321	2273.149324793518	1
10	5347	2281.885306983221	1
10	5360	2287.309851331802	1
10	5361	2287.476184635129	1
10	5363	2289.900944029265	1
10	5387	2295.977916788305	1
10	5390	2299.506498089664	1
10	5423	2310.414159356518	1
10	5426	2313.582746069422	1
10	5432	2315.222999595802	1
10	5433	2316.161713006477	1
10	5435	2318.719942635743	1
10	5444	2321.475588420798	1
10	5464	2330.780187373136	1
10	5477	2338.056679908446	1
10	5478	2338.571952215742	1
10	5479	2339.35077938093	1
10	5494	2346.917392579149	1
10	5514	2355.246950699627	1
10	5516	2356.875949312937	1
10	5529	2360.834713924321	1
10	5530	2360.914030915242	1
10	5545	2368.290510334794	1
10	5554	2374.042503711098	1
10	5634	2411.324693192588	1
10	5660	2424.983503939666	1
10	5672	2428.570881914052	1
10	5683	2431.808064243581	1
10	5685	2433.483887610898	1
10	5696	2436.424449402491	1
10	5697	2438.990159654695	1
10	5709	2442.53525875464	1
10	5742	2455.032921429765	1
10	5745	2458.148179772	1
10	5746	2459.227742370413	1
10	5757	2461.279930629007	1
10	5758	2462.0681211654	1
10	5785	2475.513531887028	1
10	5786	2475.679960716812	1
10	5789	2476.439367290647	1
10	5792	2478.35629916957	1
10	5805	2483.838643293275	1
10	5828	2490.008791804759	1
10	5843	2498.743128160759	1
10	5858	2504.840992482876	1
10	5866	2505.194909723558	1
10	5878	2512.628543952191	1
10	5891	2516.949526233699	1
10	5897	2521.236721575197	1
10	5898	2521.283176673451	1
10	5907	2528.702978464868	1
10	5918	2534.190848636699	1
10	5935	2539.23444017379	1
10	5936	2539.309887860323	1
10	5949	2544.154833640723	1
10	5965	2549.358090096048	1
10	5966	2549.40472917171	1
10	5987	2558.978908615969	1
10	6011	2567.801604438447	1
10	6020	2570.066625690778	1
10	6023	2574.089103272644	1
10	6041	2582.273692714926	1
10	6051	2589.366991460134	1
10	6060	2592.455363282243	1
10	6103	2610.010012208054	1
10	6106	2614.803634963207	1
10	6117	2615.539005180808	1
10	6130	2624.64521930232	1
10	6136	2625.008550003563	1
10	6148	2630.170763574965	1
10	6153	2633.873592920723	1
10	6154	2634.175355567469	1
10	6164	2635.979522105534	1
10	6166	2636.848129866101	1
10	6169	2639.546225420243	1
10	6183	2643.933961581731	1
10	6197	2645.518145015646	1
10	6200	2646.334948161152	1
10	6204	2648.401284197136	1
10	6226	2657.978931494566	1
10	6268	2678.517726796428	1
10	6277	2684.927400080296	1
10	6288	2689.886724609405	1
10	6295	2690.320862142097	1
10	6298	2693.75414775571	1
10	6306	2695.211620213903	1
10	6340	2711.049998442749	1
10	6364	2720.238918365972	1
10	6380	2727.422582992996	1
10	6381	2727.436392075026	1
10	6393	2733.333681335087	1
10	6401	2736.861821724902	1
10	6415	2743.595987825368	1
10	6421	2745.871967498263	1
10	6431	2750.312211222523	1
10	6467	2765.123384898301	1
10	6477	2770.82634484202	1
10	6478	2771.597807859	1
10	6480	2773.793277857398	1
10	6482	2774.017545208077	1
10	6491	2775.035501875535	1
10	6493	2776.049171051004	1
10	6505	2783.077248033035	1
10	6507	2783.818769652521	1
10	6508	2784.241105567626	1
10	6517	2786.213167163183	1
10	6518	2788.707314367125	1
10	6531	2791.02522189495	1
10	6533	2793.044420877626	1
10	6589	2815.838278888668	1
10	6602	2821.598021580753	1
10	6627	2831.008828290043	1
10	6638	2835.470233682748	1
10	6639	2836.434850597314	1
10	6640	2838.351433652134	1
10	6649	2841.544403256706	1
10	6658	2845.505751329352	1
10	6669	2851.01009192358	1
10	6709	2866.67237997835	1
10	6722	2870.890743963067	1
10	6723	2871.499255934327	1
10	6734	2879.291513998845	1
10	6743	2881.240818257626	1
10	6760	2890.163781828973	1
10	6763	2893.96951494302	1
10	6765	2894.573624296111	1
10	6771	2895.111949752736	1
10	6773	2899.395035543098	1
10	6783	2903.740751087258	1
10	6797	2906.178152115284	1
10	6809	2910.942504422238	1
10	6833	2923.595506773595	1
10	6834	2923.648717591055	1
10	6870	2936.062386369172	1
10	6871	2936.765115957328	1
10	6873	2938.964607493879	1
10	6989	2991.470719282876	1
10	6990	2993.907291207785	1
10	6992	2994.876924253156	1
10	7092	3034.194615604041	1
10	7126	3046.274797706617	1
10	7127	3047.672975816803	1
10	7144	3052.580222666158	1
10	7145	3053.225748636546	1
10	7159	3058.763450794593	1
10	7161	3058.932907904695	1
10	7325	3127.124362177235	1
10	7337	3130.5801603291	1
10	7348	3138.920248973137	1
10	7358	3142.335952222529	1
10	7379	3154.063009480437	1
10	7393	3158.264510362824	1
10	7394	3159.410201287916	1
10	7402	3160.139816533761	1
10	7418	3167.545131087501	1
10	7420	3168.616550063517	1
10	7423	3169.82807093209	1
10	7429	3170.109217943786	1
10	7459	3186.497030210987	1
10	7461	3187.859789275794	1
10	7462	3189.31634914073	1
10	7463	3189.49504137873	1
10	7475	3193.470641735168	1
10	7492	3200.160078281615	1
10	7493	3200.310317136432	1
10	7528	3220.049822045037	1
10	7534	3224.637167217708	1
10	7542	3226.514991848848	1
10	7543	3228.018602244848	1
10	7556	3230.799211522808	1
10	7583	3243.721228862166	1
10	7591	3246.895785121417	1
10	7594	3249.982244356477	1
10	7605	3253.980549377634	1
10	7606	3254.129476806705	1
10	7614	3255.711369873205	1
10	7615	3256.14414789984	1
10	7618	3258.722571995147	1
10	7619	3259.671590592005	1
10	7620	3259.75752849246	1
10	7631	3262.837206350852	1
10	7642	3265.591538155832	1
10	7662	3276.963755635424	1
10	7691	3290.885390661588	1
10	7703	3297.983270594663	1
10	7705	3298.821092157164	1
10	7715	3300.691803885853	1
10	7724	3305.109991329687	1
10	7748	3315.261654868232	1
10	7751	3316.947050219313	1
10	7766	3320.121935935875	1
10	7795	3334.112769849288	1
10	7820	3340.516452159272	1
10	7889	3372.076384552868	1
10	7967	3407.137426702051	1
10	7971	3408.53819631176	1
10	7985	3410.541749600229	1
10	7999	3417.844256962534	1
10	8000	3418.328351297703	1
10	8032	3432.323466720148	1
10	8061	3441.652800719726	1
10	8101	3457.511441339256	1
10	8121	3465.28647314461	1
10	8125	3469.485798988567	1
10	8127	3469.704954921903	1
10	8136	3472.12475367004	1
10	8144	3476.114073719387	1
10	8145	3476.168255024755	1
10	8161	3489.511593642506	1
10	8192	3502.674112312799	1
10	8204	3508.313397637045	1
10	8216	3514.534233886138	1
10	8233	3523.290117080779	1
10	8234	3523.907574050816	1
10	8249	3529.821758455403	1
10	8261	3530.550893805385	1
10	8262	3530.627504315152	1
10	8264	3532.804830480256	1
10	8273	3535.654014386121	1
10	8283	3542.646707261385	1
10	8337	3561.447457459421	1
10	8338	3561.995194652735	1
10	8340	3562.832066775283	1
10	8342	3564.237189584088	1
10	8351	3568.731240573797	1
10	8363	3572.090375924155	1
10	8371	3575.280765207826	1
10	8373	3576.825011435263	1
10	8374	3578.549413107434	1
10	8397	3587.238747001794	1
10	8398	3589.389261035546	1
10	8409	3592.546902182445	1
10	8417	3596.801708794734	1
10	8420	3598.630064535179	1
11	148	75	71.020627477171
11	222	105	96.404511819817
11	234	110	98.978871001209
11	299	140	125.73163925996
11	313	145	127.46222642385
11	325	150	74.480268597879
11	335	155	47.414694685491
11	346	160	49.500302741156
11	357	165	22.799984540019
11	372	170	11.424268651445
11	388	175	13.770656168362
11	401	180	14.41797703673
11	417	185	15.60863818025
11	430	190	15.444653127023
11	439	195	15.048052133745
11	498	225	44.505316641271
11	509	230	45.234917963056
11	517	235	44.955669919757
11	534	240	46.105285622026
11	597	265	65.020188145339
11	649	285	53.427548228307
11	663	290	51.881056408193
11	826	360	120.76536036769
11	887	395	154.77621283039
11	941	420	144.23422835992
11	955	425	139.27501593169
11	965	430	132.53579712454
11	976	435	69.219934717598
11	991	440	43.404434546624
11	1042	460	35.523020392591
11	1056	465	33.161999602623
11	1133	495	60.433711028786
11	1191	525	81.585611912736
11	1340	590	140.63813065606
11	1352	595	134.60270468361
11	1367	600	128.48101901926
11	1377	605	107.65252722478
11	1442	630	100.74566759661
11	1517	665	74.743578667434
11	1678	740	143.04219885754
11	1692	745	136.62524795676
11	1857	815	205.19070247985
11	1867	820	184.57889334432
11	1910	840	172.06178436611
11	1924	845	96.535921737168
11	1934	850	101.02441283212
11	1947	855	21.992265810915
11	1963	860	24.165989404358
11	2039	890	46.780446071452
11	2124	920	74.611948719449
11	2138	925	74.037614449097
11	2149	930	72.44456617103
11	2229	960	99.440443123495
11	2288	980	85.067113970777
11	2301	985	64.945685064955
11	2310	990	63.374207157357
11	2327	995	44.186269912051
11	2339	1000	30.973137686806
11	2350	1005	23.481245079274
11	2365	1010	19.430690021966
11	2522	1075	83.007689102015
11	2537	1080	83.726858314993
11	2596	1110	107.43738846539
11	2610	1115	109.8472431798
11	2655	1135	124.66310591669
11	2723	1160	84.111114983985
11	2740	1165	80.64200373825
11	2800	1190	79.602921454178
11	2844	1210	81.559646369529
11	2859	1215	72.979482995326
11	2969	1265	103.06189292962
11	2980	1270	97.982805607932
11	2992	1275	81.44460627818
11	3002	1280	64.913801959892
11	3011	1285	63.34737018316
11	3023	1290	22.163969449151
11	3036	1295	22.692969498077
11	3084	1315	38.597446781148
11	3096	1320	32.380420713163
11	3107	1325	36.07640493202
11	3119	1330	37.541564111751
11	3134	1335	38.924334111424
11	3146	1340	22.584877095325
11	3158	1345	19.919845066465
11	3168	1350	15.489100931985
11	3184	1355	19.032658515012
11	3201	1360	22.586161874163
11	3362	1435	94.594935797391
11	3372	1440	86.891218611528
11	3385	1445	82.296231488158
11	3399	1450	86.641916809265
11	3413	1455	85.363072500269
11	3422	1460	24.433826788921
11	3480	1490	47.004128371413
11	3496	1495	48.937875763805
11	3551	1520	67.920114271997
11	3566	1525	69.9314806977
11	3578	1530	69.409679499036
11	3638	1560	66.32940512887
11	3647	1565	64.323544880283
11	3729	1600	76.414099506848
11	3798	1630	103.55474568183
11	3813	1635	102.90205570453
11	3823	1640	72.189219934743
11	3832	1645	71.601938926283
11	3842	1650	49.882511760081
11	3850	1655	23.32311601259
11	3861	1660	23.621009323552
11	3923	1690	34.387452064486
11	3938	1695	32.733341376114
11	3993	1720	54.653566067075
11	4006	1725	54.280004118371
11	4020	1730	54.12403321476
11	4030	1735	42.621276437872
11	4043	1740	43.487187729006
11	4052	1745	18.8351292687
11	4067	1750	22.38020366441
11	4079	1755	21.630256792198
11	4091	1760	21.201219136109
11	4103	1765	20.172536861368
11	4230	1815	62.304152607272
11	4245	1820	51.107162009434
11	4320	1850	77.606813780809
11	4369	1870	91.684534950774
11	4382	1875	94.342010186719
11	4456	1905	78.271948687507
11	4473	1910	81.355541660698
11	4486	1915	63.866384456241
11	4496	1920	49.480667070551
11	4554	1945	58.150664892122
11	4565	1950	44.495685446359
11	4577	1955	37.08598939908
11	4592	1960	40.282013835925
11	4606	1965	40.106262944196
11	4616	1970	23.002210875469
11	4627	1975	23.473500255326
11	4641	1980	24.790781764274
11	4783	2045	82.511316581424
11	4797	2050	78.441586603569
11	4809	2055	78.999884663617
11	4821	2060	75.052771329858
11	4836	2065	60.671847900958
11	5112	2185	121.55541224821
11	5119	2190	126.34674365617
11	5131	2195	121.72130596575
11	5215	2225	140.26677735627
11	5258	2245	154.82750254432
11	5325	2275	88.627639349016
11	5381	2295	102.68473879183
11	5395	2300	100.31288336616
11	5407	2305	71.70706209636
11	5416	2310	62.165618267857
11	5507	2355	78.686480423751
11	5521	2360	55.624063736947
11	5537	2365	59.131085348904
11	5586	2390	79.94981437882
11	5597	2395	82.39914049138
11	5604	2400	35.324643440083
11	5615	2405	36.833750392194
11	5626	2410	31.465149710682
11	5641	2415	13.40062245791
11	5837	2495	92.881714143827
11	5851	2500	97.347771782174
11	5921	2535	128.78307714026
11	5939	2540	129.38063431297
11	5952	2545	129.35601948205
11	5969	2550	50.760465043161
11	5980	2555	53.933884139056
11	5990	2560	24.291186482758
11	6001	2565	24.048532216373
11	6067	2595	49.279052679669
11	6081	2600	47.739577425318
11	6087	2605	47.571258786718
11	6097	2610	48.211217802898
11	6109	2615	46.059095517101
11	6157	2635	38.596513389891
11	6173	2640	28.412187833457
11	6187	2645	29.567921945293
11	6208	2650	34.42770843456
11	6219	2655	34.028678222106
11	6230	2660	22.329063502429
11	6242	2665	23.448594817901
11	6280	2685	39.525887083053
11	6359	2720	65.070260711259
11	6371	2725	62.608913971804
11	6575	2810	144.36709376301
11	6632	2835	168.87192370748
11	6787	2905	219.58969482856
11	6898	2950	225.43939123872
11	6909	2955	224.96853767985
11	6921	2960	143.15557751617
11	6970	2985	140.45217340812
11	6979	2990	84.411720892352
11	6995	2995	29.015274586498
11	7061	3020	51.734184169364
11	7070	3025	49.515978388367
11	7083	3030	33.932588140927
11	7097	3035	30.338158145915
11	7252	3095	89.292538188353
11	7263	3100	77.163781954508
11	7273	3105	77.075594601897
11	7289	3110	74.989847631859
11	7299	3115	73.862660026036
11	7308	3120	19.936018558062
11	7372	3150	42.852381769226
11	7382	3155	46.113106697773
11	7451	3185	56.077016195732
11	7466	3190	46.360503065988
11	7636	3265	114.65213451107
11	7709	3300	143.14625022382
11	7719	3305	146.75265476385
11	7731	3310	123.62590592237
11	7741	3315	120.31459229189
11	7758	3320	54.893364336441
11	7769	3325	18.815603158389
11	7782	3330	22.596453449943
11	7798	3335	17.70094044614
11	7811	3340	7.946831428842
11	7826	3345	11.011105265296
11	8025	3430	70.903722695786
11	8039	3435	60.57237531605
11	8210	3510	133.82945069872
11	8219	3515	135.80023044074
11	8227	3520	139.57605063612
11	8237	3525	93.32904236446
11	8252	3530	94.595161896538
11	8268	3535	19.35559749456
11	8277	3540	17.740426920645
11	8290	3545	18.401968455728
11	8303	3550	19.824453353055
11	8314	3555	17.976996950329
11	8327	3560	17.236586723152
11	8345	3565	21.046846250113
11	8354	3570	21.349509280555
11	8403	3590	37.607333660942
12	148	75	1
12	222	105	1
12	234	110	1
12	299	140	1
12	313	145	1
12	325	150	1
12	335	155	1
12	346	160	1
12	357	165	1
12	372	170	0
12	388	175	0
12	401	180	0
12	417	185	0
12	430	190	0
12	439	195	0
12	498	225	1
12	509	230	1
12	517	235	1
12	534	240	1
12	597	265	1
12	649	285	1
12	663	290	1
12	826	360	1
12	887	395	1
12	941	420	1
12	955	425	1
12	965	430	1
12	976	435	1
12	991	440	1
12	1042	460	1
12	1056	465	1
12	1133	495	1
12	1191	525	1
12	1340	590	1
12	1352	595	1
12	1367	600	1
12	1377	605	1
12	1442	630	1
12	1517	665	1
12	1678	740	1
12	1692	745	1
12	1857	815	1
12	1867	820	1
12	1910	840	1
12	1924	845	1
12	1934	850	1
12	1947	855	1
12	1963	860	1
12	2039	890	1
12	2124	920	1
12	2138	925	1
12	2149	930	1
12	2229	960	1
12	2288	980	1
12	2301	985	1
12	2310	990	1
12	2327	995	1
12	2339	1000	1
12	2350	1005	1
12	2365	1010	0
12	2522	1075	1
12	2537	1080	1
12	2596	1110	1
12	2610	1115	1
12	2655	1135	1
12	2723	1160	1
12	2740	1165	1
12	2800	1190	1
12	2844	1210	1
12	2859	1215	1
12	2969	1265	1
12	2980	1270	1
12	2992	1275	1
12	3002	1280	1
12	3011	1285	1
12	3023	1290	1
12	3036	1295	1
12	3084	1315	1
12	3096	1320	1
12	3107	1325	1
12	3119	1330	1
12	3134	1335	1
12	3146	1340	1
12	3158	1345	0
12	3168	1350	0
12	3184	1355	0
12	3201	1360	1
12	3362	1435	1
12	3372	1440	1
12	3385	1445	1
12	3399	1450	1
12	3413	1455	1
12	3422	1460	1
12	3480	1490	1
12	3496	1495	1
12	3551	1520	1
12	3566	1525	1
12	3578	1530	1
12	3638	1560	1
12	3647	1565	1
12	3729	1600	1
12	3798	1630	1
12	3813	1635	1
12	3823	1640	1
12	3832	1645	1
12	3842	1650	1
12	3850	1655	1
12	3861	1660	1
12	3923	1690	1
12	3938	1695	1
12	3993	1720	1
12	4006	1725	1
12	4020	1730	1
12	4030	1735	1
12	4043	1740	1
12	4052	1745	0
12	4067	1750	1
12	4079	1755	1
12	4091	1760	1
12	4103	1765	1
12	4230	1815	1
12	4245	1820	1
12	4320	1850	1
12	4369	1870	1
12	4382	1875	1
12	4456	1905	1
12	4473	1910	1
12	4486	1915	1
12	4496	1920	1
12	4554	1945	1
12	4565	1950	1
12	4577	1955	1
12	4592	1960	1
12	4606	1965	1
12	4616	1970	1
12	4627	1975	1
12	4641	1980	1
12	4783	2045	1
12	4797	2050	1
12	4809	2055	1
12	4821	2060	1
12	4836	2065	1
12	5112	2185	1
12	5119	2190	1
12	5131	2195	1
12	5215	2225	1
12	5258	2245	1
12	5325	2275	1
12	5381	2295	1
12	5395	2300	1
12	5407	2305	1
12	5416	2310	1
12	5507	2355	1
12	5521	2360	1
12	5537	2365	1
12	5586	2390	1
12	5597	2395	1
12	5604	2400	1
12	5615	2405	1
12	5626	2410	1
12	5641	2415	0
12	5837	2495	1
12	5851	2500	1
12	5921	2535	1
12	5939	2540	1
12	5952	2545	1
12	5969	2550	1
12	5980	2555	1
12	5990	2560	1
12	6001	2565	1
12	6067	2595	1
12	6081	2600	1
12	6087	2605	1
12	6097	2610	1
12	6109	2615	1
12	6157	2635	1
12	6173	2640	1
12	6187	2645	1
12	6208	2650	1
12	6219	2655	1
12	6230	2660	1
12	6242	2665	1
12	6280	2685	1
12	6359	2720	1
12	6371	2725	1
12	6575	2810	1
12	6632	2835	1
12	6787	2905	1
12	6898	2950	1
12	6909	2955	1
12	6921	2960	1
12	6970	2985	1
12	6979	2990	1
12	6995	2995	1
12	7061	3020	1
12	7070	3025	1
12	7083	3030	1
12	7097	3035	1
12	7252	3095	1
12	7263	3100	1
12	7273	3105	1
12	7289	3110	1
12	7299	3115	1
12	7308	3120	0
12	7372	3150	1
12	7382	3155	1
12	7451	3185	1
12	7466	3190	1
12	7636	3265	1
12	7709	3300	1
12	7719	3305	1
12	7731	3310	1
12	7741	3315	1
12	7758	3320	1
12	7769	3325	0
12	7782	3330	1
12	7798	3335	0
12	7811	3340	0
12	7826	3345	0
12	8025	3430	1
12	8039	3435	1
12	8210	3510	1
12	8219	3515	1
12	8227	3520	1
12	8237	3525	1
12	8252	3530	1
12	8268	3535	0
12	8277	3540	0
12	8290	3545	0
12	8303	3550	0
12	8314	3555	0
12	8327	3560	0
12	8345	3565	1
12	8354	3570	1
12	8403	3590	1

