version 2
run General-0-20201212-11:47:20-16667
attr configname General
attr datetime 20201212-11:47:20
attr experiment General
attr inifile omnetpp.ini
attr iterationvars ""
attr iterationvarsf ""
attr measurement ""
attr network slottedNetwork
attr processid 16667
attr repetition 0
attr replication #0
attr resultdir results
attr runnumber 0
attr seedset 0
param **.numTransmitters 1
param **.numChannels 1
param **.bufferSize 5
param **.sendProbability 1
param **.expMean 5s
param **.timeSlotSize 5s
param **.thresh 20s

vector 0 slottedNetwork.transmitters[0] numPacketCreated:vector ETV
attr source numPacketCreatedSignal
vector 1 slottedNetwork.ch throughput:vector ETV
attr source throughputSignal
vector 2 slottedNetwork.receivers[0] numPacketReceived:vector ETV
attr source numPacketReceivedSignal
vector 3 slottedNetwork.receivers[0] responseTime:vector ETV
attr source responseTimeSignal
vector 4 slottedNetwork.receivers[0] threshold:vector ETV
attr source thresholdSignal
vector 5 slottedNetwork.transmitters[0] numPacketDiscarded:vector ETV
attr source numPacketDiscardedSignal
0	1	3.979372522829	1
0	5	8.472174465249	1
0	10	13.088290122603	1
0	18	22.483110393617	1
0	22	27.673906896936	1
0	23	29.439702592624	1
0	35	40.557324702806	1
0	36	43.80455644406	1
0	44	51.649037032175	1
0	45	54.143397077254	1
0	57	67.134667506499	1
0	61	72.357730048039	1
0	69	81.295168365232	1
0	70	82.051322633557	1
0	78	92.252893923266	1
0	86	100.322904297729	1
0	90	107.90558416768	1
0	95	114.281722678798	1
0	100	115.055371081298	1
0	105	122.162194481767	1
0	106	124.840023082906	1
0	111	128.048496593062	1
0	120	135.48977072182	1
0	121	136.216160858281	1
0	122	136.311003704286	1
0	123	138.26985775767	1
0	128	143.076762452999	1
0	129	144.333972113373	1
0	134	149.131712000214	1
0	147	160.776278871285	1
0	152	166.75681786857	1
0	164	184.257886290843	1
0	168	185.438919821257	1
0	173	192.384133270212	1
0	174	194.644643571335	1
0	179	196.610206357855	1
0	180	199.496827911888	1
0	185	204.526182937721	1
0	190	205.064358478501	1
0	195	210.104454705602	1
0	200	215.398168281073	1
0	201	218.073491666489	1
0	206	221.213199571445	1
0	211	226.097519941798	1
0	212	226.68229699076	1
0	217	232.298138498427	1
0	218	233.041699844688	1
0	227	240.574876511051	1
0	232	249.176534799634	1
0	237	254.052044470416	1
0	238	254.557218346961	1
0	255	272.425160208683	1
0	260	279.146386569445	1
0	265	282.06077851378	1
0	266	282.701062340336	1
0	267	284.928159649935	1
0	272	286.684040096842	1
0	277	292.518407729585	1
0	282	295.192829608369	1
0	283	296.414806848778	1
0	288	302.310754484104	1
0	297	312.32695709664	1
0	298	312.820208638731	1
0	311	325.521731178525	1
0	316	331.025960728979	1
0	321	336.234863999876	1
0	322	337.943134835007	1
0	323	339.480723453819	1
0	328	340.492475646655	1
0	329	344.516462645662	1
0	330	344.61802493964	1
0	335	345.519286199564	1
0	336	345.542818902026	1
0	337	346.334526433179	1
0	342	351.997697143041	1
0	347	358.080240410224	1
0	360	374.455956298798	1
0	372	385.774624178102	1
0	381	401.036032462524	1
0	382	404.017929434172	1
0	390	413.385228833458	1
0	398	420.669321626279	1
0	399	423.194415365052	1
0	403	428.820825449271	1
0	408	433.173504580903	1
0	420	449.995356846159	1
0	424	453.474354150661	1
0	425	454.784640359038	1
0	430	459.948625412265	1
0	435	464.770893239734	1
0	436	464.867792146474	1
0	441	468.043430724628	1
0	446	473.440031717906	1
0	451	475.858210150853	1
0	452	478.658015501223	1
0	461	489.195253525975	1
0	466	493.414695888929	1
0	471	497.427455817722	1
0	476	502.722502744628	1
0	477	504.658153205373	1
0	482	507.481205710977	1
0	483	508.242673837249	1
0	488	510.53353825704	1
0	505	531.222587059592	1
0	513	543.818997710008	1
0	517	546.986310798621	1
0	518	547.795661232182	1
0	527	559.546547680936	1
0	532	564.326379800548	1
0	540	571.875497078595	1
0	547	580.109092585229	1
0	548	580.863047636198	1
0	549	583.47739778664	1
0	550	583.6463317144	1
0	551	584.004708635964	1
0	567	604.253942829987	1
0	581	622.803745789506	1
0	588	630.042716199448	1
0	592	636.589208019562	1
0	593	638.662270732857	1
0	598	642.34292623279	1
0	599	644.412820846153	1
0	604	645.528516886657	1
0	605	646.466111642671	1
0	610	654.358175253201	1
0	619	664.738330555415	1
0	628	670.832314572132	1
0	629	674.29831341982	1
0	634	679.155724210295	1
0	643	685.160578743005	1
0	644	689.919727280716	1
0	653	695.602709757002	1
0	658	702.15163661381	1
0	663	706.191536880807	1
0	664	707.3691597479	1
0	665	708.627152813464	1
0	666	709.657313055879	1
0	671	710.891609399873	1
0	676	717.618346566043	1
0	693	735.190739968726	1
0	694	737.059088940698	1
0	703	747.702439413355	1
0	704	748.692278090025	1
0	709	752.602156694403	1
0	710	752.950245049771	1
0	715	759.759903671299	1
0	720	762.782809762975	1
0	725	767.453111426001	1
0	743	790.65137405787	1
0	744	791.389354222326	1
0	745	791.493690315377	1
0	746	792.795447373113	1
0	750	799.897364651039	1
0	763	811.636583458186	1
0	768	816.594104922672	1
0	769	818.462921391755	1
0	774	820.060794666119	1
0	783	830.889613070492	1
0	788	836.705179487619	1
0	793	844.478494176663	1
0	802	851.041034141491	1
0	812	866.826511848569	1
0	813	866.956500574535	1
0	817	873.173254464278	1
0	822	875.937446317537	1
0	827	881.133474500444	1
0	828	882.759554590325	1
0	829	883.79134455835	1
0	834	888.210272838515	1
0	843	895.083672607524	1
0	844	895.7918827815	1
0	845	896.753189985711	1
0	850	903.062253353147	1
0	855	906.172437948553	1
0	856	907.184731767043	1
0	857	908.330953393078	1
0	858	909.113332245	1
0	863	910.014703742891	1
0	864	912.211980695355	1
0	869	918.614102465249	1
0	878	925.861876347387	1
0	879	927.087866810599	1
0	880	927.523409726891	1
0	885	934.439992057647	1
0	890	938.831067451238	1
0	895	940.00434669752	1
0	896	941.381986382712	1
0	901	947.036578778655	1
0	902	947.119409250763	1
0	907	951.175114361903	1
0	912	956.717163132973	1
0	929	977.497018610789	1
0	941	996.467137526228	1
0	945	1001.130196802572	1
0	955	1017.424801688495	1
0	962	1027.979245560409	1
0	971	1042.162446527286	1
0	975	1045.491658960471	1
0	983	1055.860466275971	1
0	990	1065.167624490881	1
0	991	1069.977684123831	1
0	999	1077.398896537081	1
0	1000	1078.200567009514	1
0	1009	1085.780911658639	1
0	1010	1089.220629050944	1
0	1011	1089.240910657549	1
0	1016	1094.341846097323	1
0	1021	1096.984182238832	1
0	1030	1105.617349137543	1
0	1031	1106.260250323924	1
0	1032	1107.530307215675	1
0	1049	1127.26847355347	1
0	1057	1139.12041145654	1
0	1061	1141.346158153572	1
0	1062	1141.769055612381	1
0	1063	1143.565525138012	1
0	1068	1146.180363406291	1
0	1077	1159.213222417896	1
0	1086	1165.678961711875	1
0	1087	1167.495172806384	1
0	1088	1168.289838704665	1
0	1097	1179.011766027232	1
0	1102	1184.586203136767	1
0	1107	1187.415675844941	1
0	1112	1191.490767499422	1
0	1113	1193.873160412411	1
0	1122	1200.365388590434	1
0	1123	1204.847034615537	1
0	1128	1205.131867277871	1
0	1129	1208.478381637801	1
0	1130	1209.998239433945	1
0	1135	1213.065434881906	1
0	1140	1218.814141820655	1
0	1149	1228.388353108868	1
0	1150	1229.387630798471	1
0	1155	1232.947671126595	1
0	1156	1233.240310621328	1
0	1161	1238.634945163826	1
0	1170	1246.176021321961	1
0	1171	1247.158330751445	1
0	1172	1249.498863017619	1
0	1173	1249.860958568192	1
0	1178	1254.289761798341	1
0	1191	1265.42018174555	1
0	1192	1265.648371993028	1
0	1197	1271.92783941473	1
0	1198	1272.32823369445	1
0	1203	1275.497894326908	1
0	1204	1277.330150786071	1
0	1209	1280.681310168951	1
0	1222	1296.70535431701	1
0	1227	1300.769846122938	1
0	1228	1304.611112832275	1
0	1233	1305.3875407598	1
0	1234	1307.013395112243	1
0	1239	1310.887607009763	1
0	1240	1313.381068674113	1
0	1241	1314.17612875811	1
0	1254	1329.840276205843	1
0	1259	1330.324263567384	1
0	1268	1341.011372019471	1
0	1276	1351.494553387084	1
0	1283	1363.213901591077	1
0	1287	1366.418769317396	1
0	1288	1368.404174067498	1
0	1293	1374.702379920617	1
0	1298	1379.756225736113	1
0	1307	1387.039026793992	1
0	1317	1403.030301677842	1
0	1321	1406.530429858419	1
0	1329	1416.280314417653	1
0	1330	1416.793073882671	1
0	1341	1431.962786744659	1
0	1342	1432.820479881523	1
0	1350	1444.79637882847	1
0	1355	1445.292486460889	1
0	1356	1447.833583731153	1
0	1368	1462.742482017784	1
0	1369	1464.239123929876	1
0	1377	1470.743311067176	1
0	1387	1486.712120430588	1
0	1388	1489.645964463988	1
0	1392	1491.851738517636	1
0	1397	1495.646562388879	1
0	1398	1498.211197348024	1
0	1403	1502.053510234979	1
0	1404	1502.578173971621	1
0	1409	1507.275683900937	1
0	1418	1517.457154837297	1
0	1419	1517.909692188038	1
0	1420	1519.234366876225	1
0	1425	1520.587988829911	1
0	1426	1520.756158434512	1
0	1427	1524.450758534208	1
0	1428	1524.529404153083	1
0	1433	1528.127628641526	1
0	1434	1528.480138383329	1
0	1439	1532.412933842787	1
0	1440	1533.662687926036	1
0	1445	1538.001997275474	1
0	1446	1538.704375860249	1
0	1451	1541.064216299109	1
0	1452	1541.677791335694	1
0	1469	1561.665608719294	1
0	1470	1562.554992508576	1
0	1479	1571.459665883033	1
0	1491	1594.198785142332	1
0	1495	1596.074094857926	1
0	1496	1597.775280955993	1
0	1497	1598.140539241766	1
0	1498	1599.522065206404	1
0	1507	1605.275378171051	1
0	1512	1610.756340976098	1
0	1521	1620.375033829439	1
0	1522	1622.066764422932	1
0	1531	1630.712362611345	1
0	1532	1632.948062124332	1
0	1548	1650.301287527009	1
0	1549	1651.625198893701	1
0	1550	1654.606058350685	1
0	1554	1656.748596371584	1
0	1555	1658.235464011123	1
0	1572	1679.400542992783	1
0	1577	1680.7829065755	1
0	1578	1681.342629281219	1
0	1579	1684.704543791408	1
0	1592	1699.779385152338	1
0	1602	1712.207540574073	1
0	1609	1722.881052546778	1
0	1610	1723.593567275031	1
0	1614	1725.976146379894	1
0	1615	1727.936952828007	1
0	1620	1734.844248227248	1
0	1629	1742.78103437571	1
0	1630	1744.596428576631	1
0	1643	1755.452557983402	1
0	1651	1769.739684722482	1
0	1655	1773.715795729026	1
0	1665	1787.800354378849	1
0	1666	1787.924994857487	1
0	1670	1793.937781581032	1
0	1671	1794.644747144696	1
0	1691	1820.57039425986	1
0	1695	1826.14268541844	1
0	1696	1828.84469890645	1
0	1701	1834.799606173433	1
0	1706	1839.432799174917	1
0	1720	1855.5593795935	1
0	1721	1859.517425066517	1
0	1734	1878.971975518555	1
0	1743	1890.325526055538	1
0	1744	1894.661986149691	1
0	1748	1898.677670009297	1
0	1753	1900.271875251362	1
0	1754	1902.840303317682	1
0	1755	1902.969443539811	1
0	1756	1904.397288142327	1
0	1769	1915.345521715118	1
0	1770	1919.067413022107	1
0	1771	1919.201816119658	1
0	1780	1926.145202488994	1
0	1793	1943.219827001152	1
0	1798	1946.174003103175	1
0	1799	1949.765832279231	1
0	1804	1951.908037423185	1
0	1805	1954.353579476285	1
0	1814	1960.058796147552	1
0	1823	1971.226995403046	1
0	1828	1976.865797570912	1
0	1829	1978.457762651191	1
0	1834	1982.380546135781	1
0	1843	1992.080787185173	1
0	1844	1992.120363917704	1
0	1849	1995.20332936032	1
0	1850	1998.984160599271	1
0	1855	2003.067124043511	1
0	1856	2003.535900981561	1
0	1861	2007.028806011956	1
0	1862	2007.151874232311	1
0	1863	2009.923216599377	1
0	1868	2012.020613216723	1
0	1869	2012.063353309948	1
0	1870	2013.69940521658	1
0	1887	2031.046374410463	1
0	1892	2036.619429425458	1
0	1893	2039.081636307343	1
0	1894	2039.095170680236	1
0	1899	2040.383095011942	1
0	1900	2044.969453996502	1
0	1917	2062.861962625688	1
0	1925	2071.263374626095	1
0	1929	2076.492501090026	1
0	1934	2084.315783843514	1
0	1939	2088.225205959036	1
0	1944	2091.894555794149	1
0	1952	2100.111321970178	1
0	1953	2101.403618213766	1
0	1961	2110.170858805148	1
0	1969	2121.070961040927	1
0	1970	2123.060703014171	1
0	1971	2123.776946533098	1
0	1975	2126.368085773617	1
0	1984	2136.638348192935	1
0	1989	2140.544192142873	1
0	1998	2153.383855286384	1
0	1999	2153.603491457017	1
0	2011	2166.218578763791	1
0	2012	2168.121133506601	1
0	2016	2170.585527348436	1
0	2017	2174.722156966453	1
0	2022	2176.50573822982	1
0	2027	2180.844513944516	1
0	2028	2183.801027872363	1
0	2033	2185.160357065235	1
0	2034	2186.033496047635	1
0	2035	2186.821856311781	1
0	2040	2192.232365734201	1
0	2045	2197.143556656248	1
0	2050	2203.10481786666	1
0	2059	2213.643719658677	1
0	2060	2213.958836879964	1
0	2065	2217.177460909225	1
0	2070	2223.910597351906	1
0	2071	2224.949113782965	1
0	2080	2230.531706650753	1
0	2081	2232.464177560971	1
0	2103	2263.443728154581	1
0	2114	2281.013622269334	1
0	2115	2283.00101766895	1
0	2116	2284.735662084724	1
0	2124	2290.438284459542	1
0	2125	2292.288180358296	1
0	2130	2295.535233992268	1
0	2135	2300.548046033909	1
0	2136	2304.161057221585	1
0	2141	2306.994567020834	1
0	2146	2310.043377885124	1
0	2147	2312.869654291681	1
0	2164	2330.485410997828	1
0	2169	2339.10737042517	1
0	2174	2341.63869026058	1
0	2186	2362.515908281718	1
0	2190	2368.905918927548	1
0	2195	2374.4802531979	1
0	2207	2393.175995588098	1
0	2216	2408.900983351615	1
0	2220	2414.891740290837	1
0	2225	2415.319844261392	1
0	2226	2415.643262287118	1
0	2227	2415.752899190567	1
0	2228	2417.137610317207	1
0	2229	2417.875769733363	1
0	2234	2420.706417491841	1
0	2243	2430.949333274827	1
0	2244	2431.57329873613	1
0	2245	2433.539385171084	1
0	2246	2434.105251833045	1
0	2251	2438.483445823499	1
0	2260	2445.323715930376	1
0	2261	2449.858031466906	1
0	2281	2470.357702930255	1
0	2282	2471.405525358884	1
0	2286	2476.752180650724	1
0	2287	2476.797037587394	1
0	2288	2477.308629985257	1
0	2289	2477.781463667762	1
0	2294	2481.225017887543	1
0	2295	2483.634913935345	1
0	2300	2485.01735235585	1
0	2317	2505.99369545646	1
0	2318	2509.047466330785	1
0	2323	2512.597818059063	1
0	2328	2515.353507800637	1
0	2329	2515.55579757894	1
0	2330	2516.179735190734	1
0	2331	2519.485134194883	1
0	2336	2521.067271150822	1
0	2337	2522.408386617179	1
0	2338	2524.960949496857	1
0	2343	2525.264320997731	1
0	2344	2527.377769938066	1
0	2353	2537.093772719699	1
0	2354	2539.640915270804	1
0	2355	2539.752008530898	1
0	2360	2542.578066705133	1
0	2365	2547.9958076466	1
0	2374	2556.637104511438	1
0	2375	2558.595527210848	1
0	2380	2562.444836889917	1
0	2389	2571.40310856935	1
0	2390	2573.339095905555	1
0	2395	2579.596640690308	1
0	2404	2586.279482776922	1
0	2405	2586.724912564376	1
0	2410	2592.798691107215	1
0	2411	2592.949105084891	1
0	2424	2608.937398871919	1
0	2425	2608.943440381309	1
0	2430	2612.77113579268	1
0	2443	2628.658288900009	1
0	2444	2628.754829425972	1
0	2453	2638.185404960176	1
0	2458	2640.521171092478	1
0	2459	2642.357511929966	1
0	2460	2642.777312130133	1
0	2465	2646.630467434136	1
0	2466	2647.881733836151	1
0	2467	2647.925373317685	1
0	2468	2648.452254020837	1
0	2469	2648.578559629841	1
0	2474	2650.118253607744	1
0	2475	2653.723515629842	1
0	2476	2654.062795020082	1
0	2481	2655.322168943552	1
0	2482	2656.206572474161	1
0	2483	2656.48999187995	1
0	2488	2660.591286842998	1
0	2497	2671.403311556623	1
0	2498	2672.516505816799	1
0	2503	2678.756596973215	1
0	2508	2682.512958841566	1
0	2509	2682.878021560777	1
0	2518	2690.482401098944	1
0	2519	2691.356511099114	1
0	2520	2691.503410835526	1
0	2521	2693.658919971607	1
0	2530	2704.960922208486	1
0	2539	2710.467902600023	1
0	2544	2717.588557678203	1
0	2549	2720.63165444847	1
0	2550	2722.99279819169	1
0	2551	2724.458115680629	1
0	2556	2726.728072914378	1
0	2557	2727.435333439326	1
0	2562	2730.860933829014	1
0	2563	2734.469227567471	1
0	2568	2736.093311590702	1
0	2577	2745.641086683221	1
0	2578	2745.880772681132	1
0	2583	2750.283364872679	1
0	2584	2750.302703988616	1
0	2585	2754.997797006233	1
0	2590	2755.98140044938	1
0	2591	2756.913648620333	1
0	2592	2757.338005675532	1
0	2597	2763.135585505562	1
0	2602	2769.493635517159	1
0	2607	2771.483940542097	1
0	2608	2773.27019951844	1
0	2617	2782.320754575748	1
0	2622	2785.998538350465	1
0	2627	2792.402519965806	1
0	2628	2794.727948684547	1
0	2633	2797.503107311119	1
0	2634	2798.92610823107	1
0	2651	2818.135689748394	1
0	2656	2820.1838255488	1
0	2661	2827.635070982194	1
0	2675	2851.708560980851	1
0	2682	2862.993996689005	1
0	2689	2870.842188462046	1
0	2690	2872.155965511744	1
0	2691	2873.56042128923	1
0	2695	2877.43078150264	1
0	2696	2878.338677590945	1
0	2705	2885.2022976201	1
0	2706	2888.219691582246	1
0	2707	2889.298190788625	1
0	2712	2892.70386717912	1
0	2717	2896.537494089758	1
0	2718	2897.286220131049	1
0	2735	2915.728580008473	1
0	2736	2916.578865452438	1
0	2741	2924.197216854139	1
0	2742	2924.588965859604	1
0	2743	2924.77519632112	1
0	2748	2927.539192988642	1
0	2757	2938.047660909039	1
0	2762	2942.584725508734	1
0	2767	2949.98260121539	1
0	2780	2963.465275484991	1
0	2781	2964.736298798543	1
0	2786	2968.03866826995	1
0	2787	2968.076149992193	1
0	2792	2973.180312087456	1
0	2797	2979.087339080413	1
0	2806	2987.374311683755	1
0	2811	2990.414469812573	1
0	2820	3001.806018526611	1
0	2825	3007.322645040112	1
0	2826	3009.025035997791	1
0	2827	3009.469557122272	1
0	2836	3019.842819034262	1
0	2841	3021.785986865418	1
0	2842	3024.365395478049	1
0	2847	3026.656768293325	1
0	2852	3030.399089467943	1
0	2853	3031.180552680448	1
0	2854	3031.183283280243	1
0	2855	3032.103152998395	1
0	2856	3034.873573722633	1
0	2861	3035.206599408838	1
0	2862	3036.374167939029	1
0	2863	3038.515458083088	1
0	2876	3051.985746507999	1
0	2877	3052.841005603202	1
0	2878	3053.70769320934	1
0	2883	3055.801489970619	1
0	2884	3056.416068911374	1
0	2889	3061.859149776642	1
0	2894	3066.932283547965	1
0	2895	3067.062753372779	1
0	2900	3070.326471475491	1
0	2901	3070.743711563299	1
0	2902	3070.996752609885	1
0	2903	3074.636867024856	1
0	2908	3076.369702070502	1
0	2909	3076.533729844119	1
0	2910	3079.241092312437	1
0	2915	3082.291446268817	1
0	2916	3082.858469879778	1
0	2921	3088.380703904704	1
0	2926	3091.584834262192	1
0	2935	3102.924786216371	1
0	2940	3105.262906602712	1
0	2941	3107.472572547075	1
0	2950	3118.466398995404	1
0	2951	3119.318285788835	1
0	2960	3125.24171654211	1
0	2969	3136.064852420494	1
0	2970	3136.820804552713	1
0	2971	3137.503848851168	1
0	2972	3139.727441125943	1
0	2977	3144.584780893787	1
0	2990	3157.424394492608	1
0	2995	3160.664746291024	1
0	2996	3161.46442431037	1
0	2997	3162.927064674987	1
0	2998	3164.411799968893	1
0	3003	3165.533835986548	1
0	3004	3168.919144548324	1
0	3013	3176.070241289612	1
0	3014	3179.873824298785	1
0	3019	3184.299908522042	1
0	3024	3186.202863018604	1
0	3029	3194.160773583996	1
0	3034	3196.371524443639	1
0	3051	3215.494372725834	1
0	3056	3223.046396819275	1
0	3061	3228.815215636108	1
0	3069	3236.182604519375	1
0	3076	3246.725941928802	1
0	3083	3256.773485012305	1
0	3084	3257.004932541896	1
0	3088	3260.336586922015	1
0	3089	3263.77156510155	1
0	3094	3267.966431516195	1
0	3095	3268.41100332792	1
0	3100	3271.858567937528	1
0	3113	3285.348983152278	1
0	3118	3293.674756789165	1
0	3123	3296.786746910897	1
0	3124	3297.092844071513	1
0	3129	3301.37745957894	1
0	3138	3313.91607125524	1
0	3143	3319.299364499503	1
0	3144	3319.915281360942	1
0	3149	3320.813836657159	1
0	3150	3321.106630898773	1
0	3151	3324.546004756187	1
0	3168	3344.229035405259	1
0	3173	3346.058209600952	1
0	3178	3353.139177003433	1
0	3188	3367.636670271815	1
0	3192	3371.27874014886	1
0	3193	3371.541370600649	1
0	3202	3383.112745093714	1
0	3207	3389.689757556508	1
0	3208	3389.886358806152	1
0	3222	3406.504169438165	1
0	3229	3418.177110548492	1
0	3233	3420.25284252093	1
0	3234	3420.778161685437	1
0	3239	3425.170639137928	1
0	3244	3433.74525465843	1
0	3256	3447.208253996763	1
0	3263	3455.615075972998	1
0	3270	3465.571358429688	1
0	3271	3465.928043461764	1
0	3272	3467.317608695775	1
0	3276	3473.43355739853	1
0	3292	3492.408719067142	1
0	3296	3498.914282256448	1
0	3304	3505.036197436357	1
0	3313	3523.249745876453	1
0	3320	3534.358481888947	1
0	3324	3535.349488491703	1
0	3325	3536.511015312446	1
0	3326	3539.781233125037	1
0	3335	3545.248830010765	1
0	3344	3556.260172237959	1
0	3349	3563.939496566858	1
0	3354	3567.010897959942	1
0	3355	3567.734978632358	1
0	3356	3569.637627182827	1
0	3372	3586.412449079636	1
0	3379	3596.979440501054	1
0	3380	3599.011903338878	1
0	3381	3599.982858232783	1
1	2	5	0
1	6	10	1
1	11	15	1
1	15	20	1
1	19	25	0
1	24	30	1
1	28	35	1
1	32	40	1
1	37	45	0
1	40	50	1
1	46	55	1
1	50	60	1
1	54	65	1
1	58	70	0
1	62	75	1
1	66	80	1
1	71	85	0
1	74	90	1
1	79	95	1
1	83	100	1
1	87	105	0
1	91	110	1
1	96	115	1
1	101	120	1
1	107	125	1
1	112	130	1
1	116	135	1
1	124	140	1
1	130	145	1
1	135	150	1
1	139	155	1
1	143	160	1
1	148	165	1
1	153	170	1
1	157	175	1
1	161	180	1
1	165	185	0
1	169	190	1
1	175	195	1
1	181	200	1
1	186	205	1
1	191	210	1
1	196	215	1
1	202	220	1
1	207	225	1
1	213	230	1
1	219	235	1
1	223	240	1
1	228	245	1
1	233	250	1
1	239	255	1
1	243	260	1
1	247	265	1
1	251	270	1
1	256	275	1
1	261	280	1
1	268	285	1
1	273	290	1
1	278	295	1
1	284	300	1
1	289	305	1
1	293	310	1
1	299	315	1
1	303	320	1
1	307	325	1
1	312	330	1
1	317	335	1
1	324	340	1
1	331	345	1
1	338	350	1
1	343	355	1
1	348	360	1
1	352	365	1
1	356	370	1
1	361	375	1
1	365	380	1
1	369	385	1
1	373	390	0
1	376	395	1
1	379	400	0
1	383	405	0
1	386	410	1
1	391	415	1
1	395	420	1
1	400	425	0
1	404	430	1
1	409	435	1
1	413	440	1
1	417	445	1
1	421	450	0
1	426	455	1
1	431	460	1
1	437	465	1
1	442	470	1
1	447	475	1
1	453	480	1
1	457	485	1
1	462	490	1
1	467	495	1
1	472	500	1
1	478	505	1
1	484	510	1
1	489	515	1
1	493	520	1
1	497	525	1
1	501	530	1
1	506	535	1
1	510	540	1
1	514	545	0
1	519	550	1
1	523	555	1
1	528	560	1
1	533	565	1
1	537	570	1
1	541	575	0
1	544	580	1
1	552	585	0
1	555	590	1
1	559	595	1
1	563	600	1
1	568	605	1
1	572	610	1
1	576	615	1
1	579	620	0
1	582	625	0
1	585	630	1
1	589	635	0
1	594	640	1
1	600	645	1
1	606	650	1
1	611	655	1
1	615	660	1
1	620	665	1
1	624	670	1
1	630	675	1
1	635	680	1
1	639	685	1
1	645	690	1
1	649	695	1
1	654	700	1
1	659	705	1
1	667	710	1
1	672	715	1
1	677	720	1
1	681	725	1
1	685	730	1
1	689	735	1
1	695	740	1
1	699	745	1
1	705	750	1
1	711	755	1
1	716	760	1
1	721	765	1
1	726	770	1
1	730	775	1
1	734	780	1
1	738	785	1
1	741	790	0
1	747	795	0
1	751	800	1
1	755	805	1
1	759	810	1
1	764	815	1
1	770	820	1
1	775	825	1
1	779	830	1
1	784	835	1
1	789	840	1
1	794	845	1
1	798	850	1
1	803	855	1
1	807	860	1
1	810	865	0
1	814	870	0
1	818	875	1
1	823	880	1
1	830	885	1
1	835	890	1
1	839	895	1
1	846	900	1
1	851	905	1
1	859	910	1
1	865	915	1
1	870	920	1
1	874	925	1
1	881	930	1
1	886	935	1
1	891	940	1
1	897	945	1
1	903	950	1
1	908	955	1
1	913	960	1
1	917	965	1
1	921	970	1
1	925	975	1
1	930	980	1
1	934	985	1
1	937	990	0
1	939	995	0
1	942	1000	0
1	946	1005	1
1	950	1010	1
1	953	1015	0
1	956	1020	0
1	959	1025	1
1	963	1030	0
1	966	1035	1
1	969	1040	0
1	972	1045	0
1	976	1050	1
1	980	1055	1
1	984	1060	0
1	987	1065	1
1	992	1070	0
1	995	1075	1
1	1001	1080	1
1	1005	1085	1
1	1012	1090	1
1	1017	1095	1
1	1022	1100	1
1	1026	1105	1
1	1033	1110	1
1	1037	1115	1
1	1041	1120	1
1	1045	1125	1
1	1050	1130	1
1	1054	1135	1
1	1058	1140	0
1	1064	1145	1
1	1069	1150	1
1	1073	1155	1
1	1078	1160	1
1	1082	1165	1
1	1089	1170	1
1	1093	1175	1
1	1098	1180	1
1	1103	1185	1
1	1108	1190	1
1	1114	1195	1
1	1118	1200	1
1	1124	1205	1
1	1131	1210	1
1	1136	1215	1
1	1141	1220	1
1	1145	1225	1
1	1151	1230	1
1	1157	1235	1
1	1162	1240	1
1	1166	1245	1
1	1174	1250	1
1	1179	1255	1
1	1183	1260	1
1	1187	1265	1
1	1193	1270	1
1	1199	1275	1
1	1205	1280	1
1	1210	1285	1
1	1214	1290	1
1	1218	1295	1
1	1223	1300	1
1	1229	1305	1
1	1235	1310	1
1	1242	1315	1
1	1246	1320	1
1	1250	1325	1
1	1255	1330	1
1	1260	1335	1
1	1264	1340	1
1	1269	1345	1
1	1273	1350	1
1	1277	1355	0
1	1280	1360	1
1	1284	1365	0
1	1289	1370	1
1	1294	1375	1
1	1299	1380	1
1	1303	1385	1
1	1308	1390	1
1	1312	1395	1
1	1315	1400	0
1	1318	1405	0
1	1322	1410	1
1	1326	1415	1
1	1331	1420	0
1	1334	1425	1
1	1338	1430	1
1	1343	1435	0
1	1346	1440	1
1	1351	1445	1
1	1357	1450	1
1	1361	1455	1
1	1365	1460	1
1	1370	1465	0
1	1373	1470	1
1	1378	1475	1
1	1382	1480	1
1	1385	1485	0
1	1389	1490	0
1	1393	1495	1
1	1399	1500	1
1	1405	1505	1
1	1410	1510	1
1	1414	1515	1
1	1421	1520	1
1	1429	1525	1
1	1435	1530	1
1	1441	1535	1
1	1447	1540	1
1	1453	1545	1
1	1457	1550	1
1	1461	1555	1
1	1465	1560	1
1	1471	1565	1
1	1475	1570	1
1	1480	1575	1
1	1484	1580	1
1	1487	1585	0
1	1489	1590	0
1	1492	1595	0
1	1499	1600	1
1	1503	1605	1
1	1508	1610	1
1	1513	1615	1
1	1517	1620	1
1	1523	1625	1
1	1527	1630	1
1	1533	1635	1
1	1537	1640	1
1	1541	1645	1
1	1545	1650	1
1	1551	1655	0
1	1556	1660	1
1	1560	1665	1
1	1564	1670	1
1	1568	1675	1
1	1573	1680	1
1	1580	1685	1
1	1584	1690	1
1	1588	1695	1
1	1593	1700	1
1	1597	1705	1
1	1600	1710	0
1	1603	1715	0
1	1606	1720	1
1	1611	1725	0
1	1616	1730	1
1	1621	1735	1
1	1625	1740	1
1	1631	1745	1
1	1635	1750	1
1	1639	1755	1
1	1644	1760	1
1	1648	1765	1
1	1652	1770	0
1	1656	1775	1
1	1660	1780	1
1	1663	1785	0
1	1667	1790	0
1	1672	1795	1
1	1676	1800	1
1	1680	1805	1
1	1684	1810	1
1	1687	1815	0
1	1689	1820	0
1	1692	1825	0
1	1697	1830	1
1	1702	1835	1
1	1707	1840	1
1	1711	1845	1
1	1715	1850	1
1	1718	1855	0
1	1722	1860	0
1	1725	1865	1
1	1729	1870	1
1	1732	1875	0
1	1735	1880	0
1	1738	1885	1
1	1741	1890	0
1	1745	1895	0
1	1749	1900	1
1	1757	1905	1
1	1761	1910	1
1	1765	1915	1
1	1772	1920	1
1	1776	1925	1
1	1781	1930	1
1	1785	1935	1
1	1789	1940	1
1	1794	1945	1
1	1800	1950	1
1	1806	1955	1
1	1810	1960	1
1	1815	1965	1
1	1819	1970	1
1	1824	1975	1
1	1830	1980	1
1	1835	1985	1
1	1839	1990	1
1	1845	1995	1
1	1851	2000	1
1	1857	2005	1
1	1864	2010	1
1	1871	2015	1
1	1875	2020	1
1	1879	2025	1
1	1883	2030	1
1	1888	2035	1
1	1895	2040	1
1	1901	2045	1
1	1905	2050	1
1	1909	2055	1
1	1913	2060	1
1	1918	2065	1
1	1922	2070	1
1	1926	2075	0
1	1930	2080	1
1	1935	2085	1
1	1940	2090	1
1	1945	2095	1
1	1949	2100	1
1	1954	2105	0
1	1957	2110	1
1	1962	2115	1
1	1966	2120	1
1	1972	2125	0
1	1976	2130	1
1	1980	2135	1
1	1985	2140	1
1	1990	2145	1
1	1994	2150	1
1	2000	2155	1
1	2004	2160	1
1	2008	2165	1
1	2013	2170	0
1	2018	2175	1
1	2023	2180	1
1	2029	2185	1
1	2036	2190	1
1	2041	2195	1
1	2046	2200	1
1	2051	2205	1
1	2055	2210	1
1	2061	2215	1
1	2066	2220	1
1	2072	2225	1
1	2076	2230	1
1	2082	2235	1
1	2086	2240	1
1	2090	2245	1
1	2094	2250	1
1	2098	2255	1
1	2101	2260	0
1	2104	2265	0
1	2107	2270	1
1	2110	2275	0
1	2112	2280	0
1	2117	2285	0
1	2120	2290	1
1	2126	2295	1
1	2131	2300	1
1	2137	2305	1
1	2142	2310	1
1	2148	2315	1
1	2152	2320	1
1	2156	2325	1
1	2160	2330	1
1	2165	2335	1
1	2170	2340	1
1	2175	2345	1
1	2179	2350	1
1	2182	2355	0
1	2184	2360	0
1	2187	2365	0
1	2191	2370	1
1	2196	2375	1
1	2200	2380	1
1	2203	2385	0
1	2205	2390	0
1	2208	2395	0
1	2211	2400	1
1	2214	2405	0
1	2217	2410	0
1	2221	2415	1
1	2230	2420	1
1	2235	2425	1
1	2239	2430	1
1	2247	2435	1
1	2252	2440	1
1	2256	2445	1
1	2262	2450	1
1	2266	2455	1
1	2270	2460	1
1	2274	2465	1
1	2278	2470	1
1	2283	2475	0
1	2290	2480	1
1	2296	2485	1
1	2301	2490	1
1	2305	2495	1
1	2309	2500	1
1	2313	2505	1
1	2319	2510	1
1	2324	2515	1
1	2332	2520	1
1	2339	2525	1
1	2345	2530	1
1	2349	2535	1
1	2356	2540	1
1	2361	2545	1
1	2366	2550	1
1	2370	2555	1
1	2376	2560	1
1	2381	2565	1
1	2385	2570	1
1	2391	2575	1
1	2396	2580	1
1	2400	2585	1
1	2406	2590	1
1	2412	2595	1
1	2416	2600	1
1	2420	2605	1
1	2426	2610	1
1	2431	2615	1
1	2435	2620	1
1	2439	2625	1
1	2445	2630	1
1	2449	2635	1
1	2454	2640	1
1	2461	2645	1
1	2470	2650	1
1	2477	2655	1
1	2484	2660	1
1	2489	2665	1
1	2493	2670	1
1	2499	2675	1
1	2504	2680	1
1	2510	2685	1
1	2514	2690	1
1	2522	2695	1
1	2526	2700	1
1	2531	2705	1
1	2535	2710	1
1	2540	2715	1
1	2545	2720	1
1	2552	2725	1
1	2558	2730	1
1	2564	2735	1
1	2569	2740	1
1	2573	2745	1
1	2579	2750	1
1	2586	2755	1
1	2593	2760	1
1	2598	2765	1
1	2603	2770	1
1	2609	2775	1
1	2613	2780	1
1	2618	2785	1
1	2623	2790	1
1	2629	2795	1
1	2635	2800	1
1	2639	2805	1
1	2643	2810	1
1	2647	2815	1
1	2652	2820	1
1	2657	2825	1
1	2662	2830	1
1	2666	2835	1
1	2669	2840	0
1	2671	2845	0
1	2673	2850	0
1	2676	2855	0
1	2679	2860	1
1	2683	2865	0
1	2686	2870	1
1	2692	2875	0
1	2697	2880	1
1	2701	2885	1
1	2708	2890	1
1	2713	2895	1
1	2719	2900	1
1	2723	2905	1
1	2727	2910	1
1	2731	2915	1
1	2737	2920	1
1	2744	2925	1
1	2749	2930	1
1	2753	2935	1
1	2758	2940	1
1	2763	2945	1
1	2768	2950	1
1	2772	2955	1
1	2776	2960	1
1	2782	2965	1
1	2788	2970	1
1	2793	2975	1
1	2798	2980	1
1	2802	2985	1
1	2807	2990	1
1	2812	2995	1
1	2816	3000	1
1	2821	3005	1
1	2828	3010	1
1	2832	3015	1
1	2837	3020	1
1	2843	3025	1
1	2848	3030	1
1	2857	3035	1
1	2864	3040	1
1	2868	3045	1
1	2872	3050	1
1	2879	3055	1
1	2885	3060	1
1	2890	3065	1
1	2896	3070	1
1	2904	3075	1
1	2911	3080	1
1	2917	3085	1
1	2922	3090	1
1	2927	3095	1
1	2931	3100	1
1	2936	3105	1
1	2942	3110	1
1	2946	3115	1
1	2952	3120	1
1	2956	3125	1
1	2961	3130	1
1	2965	3135	1
1	2973	3140	1
1	2978	3145	1
1	2982	3150	1
1	2986	3155	1
1	2991	3160	1
1	2999	3165	1
1	3005	3170	1
1	3009	3175	1
1	3015	3180	1
1	3020	3185	1
1	3025	3190	1
1	3030	3195	1
1	3035	3200	1
1	3039	3205	1
1	3043	3210	1
1	3047	3215	1
1	3052	3220	1
1	3057	3225	1
1	3062	3230	1
1	3066	3235	1
1	3070	3240	0
1	3073	3245	1
1	3077	3250	0
1	3080	3255	1
1	3085	3260	0
1	3090	3265	1
1	3096	3270	1
1	3101	3275	1
1	3105	3280	1
1	3109	3285	1
1	3114	3290	1
1	3119	3295	1
1	3125	3300	1
1	3130	3305	1
1	3134	3310	1
1	3139	3315	1
1	3145	3320	1
1	3152	3325	1
1	3156	3330	1
1	3160	3335	1
1	3164	3340	1
1	3169	3345	1
1	3174	3350	1
1	3179	3355	1
1	3183	3360	1
1	3186	3365	0
1	3189	3370	0
1	3194	3375	1
1	3198	3380	1
1	3203	3385	1
1	3209	3390	1
1	3213	3395	1
1	3217	3400	1
1	3220	3405	0
1	3223	3410	0
1	3226	3415	1
1	3230	3420	0
1	3235	3425	1
1	3240	3430	1
1	3245	3435	1
1	3249	3440	1
1	3253	3445	1
1	3257	3450	0
1	3260	3455	1
1	3264	3460	0
1	3267	3465	1
1	3273	3470	0
1	3277	3475	1
1	3281	3480	1
1	3285	3485	1
1	3289	3490	1
1	3293	3495	0
1	3297	3500	1
1	3301	3505	1
1	3305	3510	0
1	3308	3515	1
1	3311	3520	0
1	3314	3525	0
1	3317	3530	1
1	3321	3535	0
1	3327	3540	1
1	3331	3545	1
1	3336	3550	1
1	3340	3555	1
1	3345	3560	1
1	3350	3565	1
1	3357	3570	1
1	3361	3575	1
1	3365	3580	1
1	3369	3585	1
1	3373	3590	0
1	3376	3595	1
1	3382	3600	0
2	8	10	1
2	13	15	1
2	17	20	1
2	26	30	1
2	30	35	1
2	34	40	1
2	42	50	1
2	48	55	1
2	52	60	1
2	56	65	1
2	64	75	1
2	68	80	1
2	76	90	1
2	81	95	1
2	85	100	1
2	93	110	1
2	98	115	1
2	103	120	1
2	109	125	1
2	114	130	1
2	118	135	1
2	126	140	1
2	132	145	1
2	137	150	1
2	141	155	1
2	145	160	1
2	150	165	1
2	155	170	1
2	159	175	1
2	163	180	1
2	171	190	1
2	177	195	1
2	183	200	1
2	188	205	1
2	193	210	1
2	198	215	1
2	204	220	1
2	209	225	1
2	215	230	1
2	221	235	1
2	225	240	1
2	230	245	1
2	235	250	1
2	241	255	1
2	245	260	1
2	249	265	1
2	253	270	1
2	258	275	1
2	263	280	1
2	270	285	1
2	275	290	1
2	280	295	1
2	286	300	1
2	291	305	1
2	295	310	1
2	301	315	1
2	305	320	1
2	309	325	1
2	314	330	1
2	319	335	1
2	326	340	1
2	333	345	1
2	340	350	1
2	345	355	1
2	350	360	1
2	354	365	1
2	358	370	1
2	363	375	1
2	367	380	1
2	371	385	1
2	378	395	1
2	388	410	1
2	393	415	1
2	397	420	1
2	406	430	1
2	411	435	1
2	415	440	1
2	419	445	1
2	428	455	1
2	433	460	1
2	439	465	1
2	444	470	1
2	449	475	1
2	455	480	1
2	459	485	1
2	464	490	1
2	469	495	1
2	474	500	1
2	480	505	1
2	486	510	1
2	491	515	1
2	495	520	1
2	499	525	1
2	503	530	1
2	508	535	1
2	512	540	1
2	521	550	1
2	525	555	1
2	530	560	1
2	535	565	1
2	539	570	1
2	546	580	1
2	557	590	1
2	561	595	1
2	565	600	1
2	570	605	1
2	574	610	1
2	578	615	1
2	587	630	1
2	596	640	1
2	602	645	1
2	608	650	1
2	613	655	1
2	617	660	1
2	622	665	1
2	626	670	1
2	632	675	1
2	637	680	1
2	641	685	1
2	647	690	1
2	651	695	1
2	656	700	1
2	661	705	1
2	669	710	1
2	674	715	1
2	679	720	1
2	683	725	1
2	687	730	1
2	691	735	1
2	697	740	1
2	701	745	1
2	707	750	1
2	713	755	1
2	718	760	1
2	723	765	1
2	728	770	1
2	732	775	1
2	736	780	1
2	740	785	1
2	753	800	1
2	757	805	1
2	761	810	1
2	766	815	1
2	772	820	1
2	777	825	1
2	781	830	1
2	786	835	1
2	791	840	1
2	796	845	1
2	800	850	1
2	805	855	1
2	809	860	1
2	820	875	1
2	825	880	1
2	832	885	1
2	837	890	1
2	841	895	1
2	848	900	1
2	853	905	1
2	861	910	1
2	867	915	1
2	872	920	1
2	876	925	1
2	883	930	1
2	888	935	1
2	893	940	1
2	899	945	1
2	905	950	1
2	910	955	1
2	915	960	1
2	919	965	1
2	923	970	1
2	927	975	1
2	932	980	1
2	936	985	1
2	948	1005	1
2	952	1010	1
2	961	1025	1
2	968	1035	1
2	978	1050	1
2	982	1055	1
2	989	1065	1
2	997	1075	1
2	1003	1080	1
2	1007	1085	1
2	1014	1090	1
2	1019	1095	1
2	1024	1100	1
2	1028	1105	1
2	1035	1110	1
2	1039	1115	1
2	1043	1120	1
2	1047	1125	1
2	1052	1130	1
2	1056	1135	1
2	1066	1145	1
2	1071	1150	1
2	1075	1155	1
2	1080	1160	1
2	1084	1165	1
2	1091	1170	1
2	1095	1175	1
2	1100	1180	1
2	1105	1185	1
2	1110	1190	1
2	1116	1195	1
2	1120	1200	1
2	1126	1205	1
2	1133	1210	1
2	1138	1215	1
2	1143	1220	1
2	1147	1225	1
2	1153	1230	1
2	1159	1235	1
2	1164	1240	1
2	1168	1245	1
2	1176	1250	1
2	1181	1255	1
2	1185	1260	1
2	1189	1265	1
2	1195	1270	1
2	1201	1275	1
2	1207	1280	1
2	1212	1285	1
2	1216	1290	1
2	1220	1295	1
2	1225	1300	1
2	1231	1305	1
2	1237	1310	1
2	1244	1315	1
2	1248	1320	1
2	1252	1325	1
2	1257	1330	1
2	1262	1335	1
2	1266	1340	1
2	1271	1345	1
2	1275	1350	1
2	1282	1360	1
2	1291	1370	1
2	1296	1375	1
2	1301	1380	1
2	1305	1385	1
2	1310	1390	1
2	1314	1395	1
2	1324	1410	1
2	1328	1415	1
2	1336	1425	1
2	1340	1430	1
2	1348	1440	1
2	1353	1445	1
2	1359	1450	1
2	1363	1455	1
2	1367	1460	1
2	1375	1470	1
2	1380	1475	1
2	1384	1480	1
2	1395	1495	1
2	1401	1500	1
2	1407	1505	1
2	1412	1510	1
2	1416	1515	1
2	1423	1520	1
2	1431	1525	1
2	1437	1530	1
2	1443	1535	1
2	1449	1540	1
2	1455	1545	1
2	1459	1550	1
2	1463	1555	1
2	1467	1560	1
2	1473	1565	1
2	1477	1570	1
2	1482	1575	1
2	1486	1580	1
2	1501	1600	1
2	1505	1605	1
2	1510	1610	1
2	1515	1615	1
2	1519	1620	1
2	1525	1625	1
2	1529	1630	1
2	1535	1635	1
2	1539	1640	1
2	1543	1645	1
2	1547	1650	1
2	1558	1660	1
2	1562	1665	1
2	1566	1670	1
2	1570	1675	1
2	1575	1680	1
2	1582	1685	1
2	1586	1690	1
2	1590	1695	1
2	1595	1700	1
2	1599	1705	1
2	1608	1720	1
2	1618	1730	1
2	1623	1735	1
2	1627	1740	1
2	1633	1745	1
2	1637	1750	1
2	1641	1755	1
2	1646	1760	1
2	1650	1765	1
2	1658	1775	1
2	1662	1780	1
2	1674	1795	1
2	1678	1800	1
2	1682	1805	1
2	1686	1810	1
2	1699	1830	1
2	1704	1835	1
2	1709	1840	1
2	1713	1845	1
2	1717	1850	1
2	1727	1865	1
2	1731	1870	1
2	1740	1885	1
2	1751	1900	1
2	1759	1905	1
2	1763	1910	1
2	1767	1915	1
2	1774	1920	1
2	1778	1925	1
2	1783	1930	1
2	1787	1935	1
2	1791	1940	1
2	1796	1945	1
2	1802	1950	1
2	1808	1955	1
2	1812	1960	1
2	1817	1965	1
2	1821	1970	1
2	1826	1975	1
2	1832	1980	1
2	1837	1985	1
2	1841	1990	1
2	1847	1995	1
2	1853	2000	1
2	1859	2005	1
2	1866	2010	1
2	1873	2015	1
2	1877	2020	1
2	1881	2025	1
2	1885	2030	1
2	1890	2035	1
2	1897	2040	1
2	1903	2045	1
2	1907	2050	1
2	1911	2055	1
2	1915	2060	1
2	1920	2065	1
2	1924	2070	1
2	1932	2080	1
2	1937	2085	1
2	1942	2090	1
2	1947	2095	1
2	1951	2100	1
2	1959	2110	1
2	1964	2115	1
2	1968	2120	1
2	1978	2130	1
2	1982	2135	1
2	1987	2140	1
2	1992	2145	1
2	1996	2150	1
2	2002	2155	1
2	2006	2160	1
2	2010	2165	1
2	2020	2175	1
2	2025	2180	1
2	2031	2185	1
2	2038	2190	1
2	2043	2195	1
2	2048	2200	1
2	2053	2205	1
2	2057	2210	1
2	2063	2215	1
2	2068	2220	1
2	2074	2225	1
2	2078	2230	1
2	2084	2235	1
2	2088	2240	1
2	2092	2245	1
2	2096	2250	1
2	2100	2255	1
2	2109	2270	1
2	2122	2290	1
2	2128	2295	1
2	2133	2300	1
2	2139	2305	1
2	2144	2310	1
2	2150	2315	1
2	2154	2320	1
2	2158	2325	1
2	2162	2330	1
2	2167	2335	1
2	2172	2340	1
2	2177	2345	1
2	2181	2350	1
2	2193	2370	1
2	2198	2375	1
2	2202	2380	1
2	2213	2400	1
2	2223	2415	1
2	2232	2420	1
2	2237	2425	1
2	2241	2430	1
2	2249	2435	1
2	2254	2440	1
2	2258	2445	1
2	2264	2450	1
2	2268	2455	1
2	2272	2460	1
2	2276	2465	1
2	2280	2470	1
2	2292	2480	1
2	2298	2485	1
2	2303	2490	1
2	2307	2495	1
2	2311	2500	1
2	2315	2505	1
2	2321	2510	1
2	2326	2515	1
2	2334	2520	1
2	2341	2525	1
2	2347	2530	1
2	2351	2535	1
2	2358	2540	1
2	2363	2545	1
2	2368	2550	1
2	2372	2555	1
2	2378	2560	1
2	2383	2565	1
2	2387	2570	1
2	2393	2575	1
2	2398	2580	1
2	2402	2585	1
2	2408	2590	1
2	2414	2595	1
2	2418	2600	1
2	2422	2605	1
2	2428	2610	1
2	2433	2615	1
2	2437	2620	1
2	2441	2625	1
2	2447	2630	1
2	2451	2635	1
2	2456	2640	1
2	2463	2645	1
2	2472	2650	1
2	2479	2655	1
2	2486	2660	1
2	2491	2665	1
2	2495	2670	1
2	2501	2675	1
2	2506	2680	1
2	2512	2685	1
2	2516	2690	1
2	2524	2695	1
2	2528	2700	1
2	2533	2705	1
2	2537	2710	1
2	2542	2715	1
2	2547	2720	1
2	2554	2725	1
2	2560	2730	1
2	2566	2735	1
2	2571	2740	1
2	2575	2745	1
2	2581	2750	1
2	2588	2755	1
2	2595	2760	1
2	2600	2765	1
2	2605	2770	1
2	2611	2775	1
2	2615	2780	1
2	2620	2785	1
2	2625	2790	1
2	2631	2795	1
2	2637	2800	1
2	2641	2805	1
2	2645	2810	1
2	2649	2815	1
2	2654	2820	1
2	2659	2825	1
2	2664	2830	1
2	2668	2835	1
2	2681	2860	1
2	2688	2870	1
2	2699	2880	1
2	2703	2885	1
2	2710	2890	1
2	2715	2895	1
2	2721	2900	1
2	2725	2905	1
2	2729	2910	1
2	2733	2915	1
2	2739	2920	1
2	2746	2925	1
2	2751	2930	1
2	2755	2935	1
2	2760	2940	1
2	2765	2945	1
2	2770	2950	1
2	2774	2955	1
2	2778	2960	1
2	2784	2965	1
2	2790	2970	1
2	2795	2975	1
2	2800	2980	1
2	2804	2985	1
2	2809	2990	1
2	2814	2995	1
2	2818	3000	1
2	2823	3005	1
2	2830	3010	1
2	2834	3015	1
2	2839	3020	1
2	2845	3025	1
2	2850	3030	1
2	2859	3035	1
2	2866	3040	1
2	2870	3045	1
2	2874	3050	1
2	2881	3055	1
2	2887	3060	1
2	2892	3065	1
2	2898	3070	1
2	2906	3075	1
2	2913	3080	1
2	2919	3085	1
2	2924	3090	1
2	2929	3095	1
2	2933	3100	1
2	2938	3105	1
2	2944	3110	1
2	2948	3115	1
2	2954	3120	1
2	2958	3125	1
2	2963	3130	1
2	2967	3135	1
2	2975	3140	1
2	2980	3145	1
2	2984	3150	1
2	2988	3155	1
2	2993	3160	1
2	3001	3165	1
2	3007	3170	1
2	3011	3175	1
2	3017	3180	1
2	3022	3185	1
2	3027	3190	1
2	3032	3195	1
2	3037	3200	1
2	3041	3205	1
2	3045	3210	1
2	3049	3215	1
2	3054	3220	1
2	3059	3225	1
2	3064	3230	1
2	3068	3235	1
2	3075	3245	1
2	3082	3255	1
2	3092	3265	1
2	3098	3270	1
2	3103	3275	1
2	3107	3280	1
2	3111	3285	1
2	3116	3290	1
2	3121	3295	1
2	3127	3300	1
2	3132	3305	1
2	3136	3310	1
2	3141	3315	1
2	3147	3320	1
2	3154	3325	1
2	3158	3330	1
2	3162	3335	1
2	3166	3340	1
2	3171	3345	1
2	3176	3350	1
2	3181	3355	1
2	3185	3360	1
2	3196	3375	1
2	3200	3380	1
2	3205	3385	1
2	3211	3390	1
2	3215	3395	1
2	3219	3400	1
2	3228	3415	1
2	3237	3425	1
2	3242	3430	1
2	3247	3435	1
2	3251	3440	1
2	3255	3445	1
2	3262	3455	1
2	3269	3465	1
2	3279	3475	1
2	3283	3480	1
2	3287	3485	1
2	3291	3490	1
2	3299	3500	1
2	3303	3505	1
2	3310	3515	1
2	3319	3530	1
2	3329	3540	1
2	3333	3545	1
2	3338	3550	1
2	3342	3555	1
2	3347	3560	1
2	3352	3565	1
2	3359	3570	1
2	3363	3575	1
2	3367	3580	1
2	3371	3585	1
2	3378	3595	1
3	8	10	6.020627477171
3	13	15	6.527825534751
3	17	20	6.911709877397
3	26	30	7.516889606383
3	30	35	7.326093103064
3	34	40	10.560297407376
3	42	50	9.442675297194
3	48	55	11.19544355594
3	52	60	8.350962967825
3	56	65	10.856602922746
3	64	75	7.865332493501
3	68	80	7.642269951961
3	76	90	8.704831634768
3	81	95	12.948677366443
3	85	100	7.747106076734
3	93	110	9.677095702271
3	98	115	7.09441583232
3	103	120	5.718277321202
3	109	125	9.944628918702
3	114	130	7.837805518233
3	118	135	10.159976917094
3	126	140	11.951503406938
3	132	145	9.51022927818
3	137	150	13.783839141719
3	141	155	18.688996295714
3	145	160	21.73014224233
3	150	165	21.923237547001
3	155	170	20.868287999786
3	159	175	14.223721128715
3	163	180	13.24318213143
3	171	190	5.742113709157
3	177	195	9.561080178743
3	183	200	7.615866729788
3	188	205	10.355356428665
3	193	210	13.389793642145
3	198	215	15.503172088112
3	204	220	15.473817062279
3	209	225	19.935641521499
3	215	230	19.895545294398
3	221	235	19.601831718927
3	225	240	21.926508333511
3	230	245	23.786800428555
3	235	250	23.902480058202
3	241	255	22.701861501573
3	245	260	19.425123488949
3	249	265	15.823465200366
3	253	270	15.947955529584
3	258	275	20.442781653039
3	263	280	7.574839791317
3	270	285	5.853613430555
3	275	290	7.93922148622
3	280	295	12.298937659664
3	286	300	15.071840350065
3	291	305	18.315959903158
3	295	310	17.481592270415
3	301	315	19.807170391631
3	305	320	23.585193151222
3	309	325	22.689245515896
3	314	330	17.67304290336
3	319	335	22.179791361269
3	326	340	14.478268821475
3	333	345	13.974039271021
3	340	350	13.765136000124
3	345	355	17.056865164993
3	350	360	20.519276546181
3	354	365	24.507524353345
3	358	370	24.480713800436
3	363	375	23.002302856959
3	367	380	21.919759589776
3	371	385	10.544043701202
3	378	395	9.225375821898
3	388	410	8.963967537476
3	393	415	10.982070565828
3	397	420	6.614771166542
3	406	430	9.330678373721
3	411	435	11.805584634948
3	415	440	11.179174550729
3	419	445	11.826495419097
3	428	455	5.004643153841
3	433	460	6.525645849339
3	439	465	10.215359640962
3	444	470	10.051374587735
3	449	475	10.229106760266
3	455	480	15.132207853526
3	459	485	16.956569275372
3	464	490	16.559968282094
3	469	495	19.141789849147
3	474	500	21.341984498777
3	480	505	15.804746474025
3	486	510	16.585304111071
3	491	515	17.572544182278
3	495	520	17.277497255372
3	499	525	20.341846794627
3	503	530	22.518794289023
3	508	535	24.46646174296
3	512	540	8.777412940408
3	521	550	6.181002289992
3	525	555	8.013689201379
3	530	560	12.204338767818
3	535	565	5.453452319064
3	539	570	5.673620199452
3	546	580	8.124502921405
3	557	590	9.890907414771
3	561	595	14.136952363802
3	565	600	16.52260221336
3	570	605	21.3536682856
3	574	610	25.995291364036
3	578	615	10.746057170013
3	587	630	7.196254210494
3	596	640	9.957283800552
3	602	645	8.410791980438
3	608	650	11.337729267143
3	613	655	12.65707376721
3	617	660	15.587179153847
3	622	665	19.471483113343
3	626	670	23.533888357329
3	632	675	20.641824746799
3	637	680	15.261669444585
3	641	685	14.167685427868
3	647	690	15.70168658018
3	651	695	15.844275789705
3	656	700	14.839421256995
3	661	705	15.080272719284
3	669	710	14.397290242998
3	674	715	12.84836338619
3	679	720	13.808463119193
3	683	725	17.6308402521
3	687	730	21.372847186536
3	691	735	24.108390600127
3	697	740	22.381653433957
3	701	745	9.809260031274
3	707	750	12.940911059302
3	713	755	7.297560586645
3	718	760	11.307721909975
3	723	765	12.397843305597
3	728	770	17.049754950229
3	732	775	15.240096328701
3	736	780	17.217190237025
3	740	785	17.546888573999
3	753	800	9.34862594213
3	757	805	13.610645777674
3	761	810	18.506309684623
3	766	815	22.204552626887
3	772	820	20.102635348961
3	777	825	13.363416541814
3	781	830	13.405895077328
3	786	835	16.537078608245
3	791	840	19.939205333881
3	796	845	14.110386929508
3	800	850	13.294820512381
3	805	855	10.521505823337
3	809	860	8.958965858509
3	820	875	8.173488151431
3	825	880	13.043499425465
3	832	885	11.826745535722
3	837	890	14.062553682463
3	841	895	13.866525499556
3	848	900	17.240445409675
3	853	905	21.20865544165
3	861	910	21.789727161485
3	867	915	19.916327392476
3	872	920	24.2081172185
3	876	925	21.937746646853
3	883	930	23.827562051447
3	888	935	24.985296257109
3	893	940	21.385897534751
3	899	945	19.138123652613
3	905	950	22.912133189401
3	910	955	20.560007942353
3	915	960	21.168932548762
3	919	965	24.99565330248
3	923	970	22.963421221345
3	927	975	23.824885638097
3	932	980	23.282836867027
3	936	985	7.502981389211
3	948	1005	8.532862473772
3	952	1010	8.869803197428
3	961	1025	7.575198311505
3	968	1035	7.020754439591
3	978	1050	7.837553472714
3	982	1055	9.508341039529
3	989	1065	9.139533724029
3	997	1075	9.832375509119
3	1003	1080	10.022315876169
3	1007	1085	7.601103462919
3	1014	1090	11.799432990486
3	1019	1095	9.219088341361
3	1024	1100	10.779370949056
3	1028	1105	15.759089342451
3	1035	1110	15.658153902677
3	1039	1115	18.015817761168
3	1043	1120	14.382650862457
3	1047	1125	18.739749676076
3	1052	1130	22.469692784325
3	1056	1135	7.73152644653
3	1066	1145	5.87958854346
3	1071	1150	8.653841846428
3	1075	1155	13.230944387619
3	1080	1160	16.434474861988
3	1084	1165	18.819636593709
3	1091	1170	10.786777582104
3	1095	1175	9.321038288125
3	1100	1180	12.504827193616
3	1105	1185	16.710161295335
3	1110	1190	10.988233972768
3	1116	1195	10.413796863233
3	1120	1200	12.584324155059
3	1126	1205	13.509232500578
3	1133	1210	16.126839587589
3	1138	1215	14.634611409566
3	1143	1220	15.152965384463
3	1147	1225	19.868132722129
3	1153	1230	21.521618362199
3	1159	1235	21.934565118094
3	1164	1240	21.185858179345
3	1168	1245	16.611646891132
3	1176	1250	20.612369201529
3	1181	1255	22.052328873405
3	1185	1260	21.365054836174
3	1189	1265	18.823978678039
3	1195	1270	22.841669248555
3	1201	1275	20.710238201659
3	1207	1280	14.57981825445
3	1212	1285	19.351628006972
3	1216	1290	18.07216058527
3	1220	1295	22.67176630555
3	1225	1300	24.502105673092
3	1231	1305	24.318689831049
3	1237	1310	13.29464568299
3	1244	1315	14.230153877062
3	1248	1320	15.388887167725
3	1252	1325	19.6124592402
3	1257	1330	22.986604887757
3	1262	1335	24.112392990237
3	1266	1340	10.159723794157
3	1271	1345	14.675736432616
3	1275	1350	8.988627980529
3	1282	1360	8.505446612916
3	1291	1370	6.786098408923
3	1296	1375	8.581230682604
3	1301	1380	11.595825932502
3	1305	1385	10.297620079383
3	1310	1390	10.243774263887
3	1314	1395	7.960973206008
3	1324	1410	6.969698322158
3	1328	1415	8.469570141581
3	1336	1425	8.719685582347
3	1340	1430	13.206926117329
3	1348	1440	8.037213255341
3	1353	1445	12.179520118477
3	1359	1450	5.20362117153
3	1363	1455	9.707513539111
3	1367	1460	12.166416268847
3	1375	1470	7.257517982216
3	1380	1475	10.760876070124
3	1384	1480	9.256688932824
3	1395	1495	8.287879569412
3	1401	1500	10.354035536012
3	1407	1505	13.148261482364
3	1412	1510	14.353437611121
3	1416	1515	16.788802651976
3	1423	1520	17.946489765021
3	1431	1525	22.421826028379
3	1437	1530	22.724316099063
3	1443	1535	17.542845162703
3	1449	1540	22.090307811962
3	1455	1545	24.412011170089
3	1459	1550	21.872371358474
3	1463	1555	22.587066157213
3	1467	1560	21.998002724526
3	1473	1565	23.935783700891
3	1477	1570	8.334391280706
3	1482	1575	12.445007491424
3	1486	1580	8.540334116967
3	1501	1600	5.801214857668
3	1505	1605	8.925905142074
3	1510	1610	12.224719044007
3	1515	1615	16.859460758234
3	1519	1620	20.477934793596
3	1525	1625	19.724621828949
3	1529	1630	19.243659023902
3	1535	1635	14.624966170561
3	1539	1640	17.933235577068
3	1543	1645	14.287637388655
3	1547	1650	17.051937875668
3	1558	1660	9.698712472991
3	1562	1665	13.374801106299
3	1566	1670	15.393941649315
3	1570	1675	18.251403628416
3	1575	1680	21.764535988877
3	1582	1685	5.599457007217
3	1586	1690	9.2170934245
3	1590	1695	13.657370718781
3	1595	1700	15.295456208592
3	1599	1705	5.220614847662
3	1608	1720	7.792459425927
3	1618	1730	7.118947453222
3	1623	1735	11.406432724969
3	1627	1740	14.023853620106
3	1633	1745	17.063047171993
3	1637	1750	15.155751772752
3	1641	1755	12.21896562429
3	1646	1760	15.403571423369
3	1650	1765	9.547442016598
3	1658	1775	5.260315277518
3	1662	1780	6.284204270974
3	1674	1795	7.199645621151
3	1678	1800	12.075005142513
3	1682	1805	11.062218418968
3	1686	1810	15.355252855304
3	1699	1830	9.42960574014
3	1704	1835	8.85731458156
3	1709	1840	11.15530109355
3	1713	1845	10.200393826567
3	1717	1850	10.567200825083
3	1727	1865	9.4406204065
3	1731	1870	10.482574933483
3	1740	1885	6.028024481445
3	1751	1900	9.674473944462
3	1759	1905	10.338013850309
3	1763	1910	11.322329990703
3	1767	1915	14.728124748638
3	1774	1920	17.159696682318
3	1778	1925	22.030556460189
3	1783	1930	14.654478284882
3	1787	1935	15.932586977893
3	1791	1940	20.798183880342
3	1796	1945	18.854797511006
3	1802	1950	6.780172998848
3	1808	1955	8.825996896825
3	1812	1960	10.234167720769
3	1817	1965	13.091962576815
3	1821	1970	15.646420523715
3	1826	1975	14.941203852448
3	1832	1980	8.773004596954
3	1837	1985	8.134202429088
3	1841	1990	11.542237348809
3	1847	1995	12.619453864219
3	1853	2000	7.919212814827
3	1859	2005	12.879636082296
3	1866	2010	14.79667063968
3	1873	2015	16.015839400729
3	1877	2020	16.932875956489
3	1881	2025	21.464099018439
3	1885	2030	22.971193988044
3	1890	2035	22.979386783277
3	1897	2040	8.953625589537
3	1903	2045	8.380570574542
3	1907	2050	10.918363692657
3	1911	2055	15.904829319764
3	1915	2060	19.616904988058
3	1920	2065	20.030546003498
3	1924	2070	7.138037374312
3	1932	2080	8.736625373905
3	1937	2085	8.507498909974
3	1942	2090	5.684216156486
3	1947	2095	6.774794040964
3	1951	2100	8.105444205851
3	1959	2110	9.888678029822
3	1964	2115	13.596381786234
3	1968	2120	9.829141194852
3	1978	2130	8.929038959073
3	1982	2135	11.939296985829
3	1987	2140	16.223053466902
3	1992	2145	18.631914226383
3	1996	2150	13.361651807065
3	2002	2155	14.455807857127
3	2006	2160	6.616144713616
3	2010	2165	11.396508542983
3	2020	2175	8.781421236209
3	2025	2180	11.878866493399
3	2031	2185	14.414472651564
3	2038	2190	15.277843033547
3	2043	2195	18.49426177018
3	2048	2200	19.155486055484
3	2053	2205	21.198972127637
3	2057	2210	24.839642934765
3	2063	2215	22.767634265799
3	2068	2220	22.856443343752
3	2074	2225	21.89518213334
3	2078	2230	16.356280341323
3	2084	2235	21.041163120036
3	2088	2240	22.822539090775
3	2092	2245	21.089402648094
3	2096	2250	19.468293349247
3	2100	2255	22.535822439029
3	2109	2270	6.556271845419
3	2122	2290	8.986377730666
3	2128	2295	11.99898233105
3	2133	2300	15.264337915276
3	2139	2305	14.561715540458
3	2144	2310	17.711819641704
3	2150	2315	19.464766007732
3	2154	2320	19.451953966091
3	2158	2325	20.838942778415
3	2162	2330	23.005432979166
3	2167	2335	24.956622114876
3	2172	2340	9.514589002172
3	2177	2345	5.89262957483
3	2181	2350	8.36130973942
3	2193	2370	7.484091718282
3	2198	2375	6.094081072452
3	2202	2380	5.5197468021
3	2213	2400	6.824004411902
3	2223	2415	6.099016648385
3	2232	2420	5.108259709163
3	2237	2425	9.680155738608
3	2241	2430	14.356737712882
3	2249	2435	19.247100809433
3	2254	2440	22.862389682793
3	2258	2445	24.293582508159
3	2264	2450	19.050666725173
3	2268	2455	23.42670126387
3	2272	2460	21.516554176501
3	2276	2465	19.676284069624
3	2280	2470	20.141968533094
3	2292	2480	9.642297069745
3	2298	2485	13.594474641116
3	2303	2490	13.247819349276
3	2307	2495	18.202962412606
3	2311	2500	22.691370014743
3	2315	2505	23.774982112457
3	2321	2510	24.98264764415
3	2326	2515	9.00630454354
3	2334	2520	10.952533669215
3	2341	2525	12.402181940937
3	2347	2530	14.646492199363
3	2351	2535	19.44420242106
3	2358	2540	23.820264809266
3	2363	2545	23.932728849178
3	2368	2550	24.735679002269
3	2372	2555	17.906227280301
3	2378	2560	20.359084729196
3	2383	2565	22.421933294867
3	2387	2570	22.0041923534
3	2393	2575	18.362895488562
3	2398	2580	21.404472789152
3	2402	2585	22.555163110083
3	2408	2590	18.59689143065
3	2414	2595	21.660904094445
3	2418	2600	20.403359309692
3	2422	2605	18.720517223078
3	2428	2610	23.275087435624
3	2433	2615	22.201308892785
3	2437	2620	11.062601128081
3	2441	2625	16.056559618691
3	2447	2630	17.22886420732
3	2451	2635	6.341711099991
3	2456	2640	11.245170574028
3	2463	2645	6.814595039824
3	2472	2650	9.478828907522
3	2479	2655	12.642488070034
3	2486	2660	17.222687869867
3	2491	2665	18.369532565864
3	2495	2670	22.118266163849
3	2501	2675	24.881746392256
3	2506	2680	24.677831056448
3	2512	2685	24.408713157002
3	2516	2690	18.596688443377
3	2524	2695	22.483494183201
3	2528	2700	21.243403026785
3	2533	2705	22.487041158434
3	2537	2710	19.517598901056
3	2542	2715	23.643488900886
3	2547	2720	15.039077791514
3	2554	2725	14.532097399977
3	2560	2730	12.411442321797
3	2566	2735	14.36834555153
3	2571	2740	17.00720180831
3	2575	2745	20.541884319371
3	2581	2750	23.271927085622
3	2588	2755	24.139066170986
3	2595	2760	23.906688409298
3	2600	2765	19.358913316779
3	2605	2770	24.119227318868
3	2611	2775	24.716635127321
3	2615	2780	24.01859955062
3	2620	2785	21.864414494438
3	2625	2790	20.506364482841
3	2631	2795	23.516059457903
3	2637	2800	17.679245424252
3	2641	2805	19.001461649535
3	2645	2810	17.597480034194
3	2649	2815	20.272051315453
3	2654	2820	22.496892688881
3	2659	2825	6.864310251606
3	2664	2830	9.8161744512
3	2668	2835	7.364929017806
3	2681	2860	8.291439019149
3	2688	2870	7.006003310995
3	2699	2880	9.157811537954
3	2703	2885	12.844034488256
3	2710	2890	16.43957871077
3	2715	2895	17.56921849736
3	2721	2900	21.661322409055
3	2725	2905	19.7977023799
3	2729	2910	21.780308417754
3	2733	2915	22.29613282088
3	2739	2920	23.462505910242
3	2746	2925	9.271419991527
3	2751	2930	13.421134547562
3	2755	2935	10.802783145861
3	2760	2940	15.411034140396
3	2765	2945	20.22480367888
3	2770	2950	22.460807011358
3	2774	2955	16.952339090961
3	2778	2960	17.415274491266
3	2784	2965	15.01739878461
3	2790	2970	6.534724515009
3	2795	2975	10.263701201457
3	2800	2980	11.96133173005
3	2804	2985	16.923850007807
3	2809	2990	16.819687912544
3	2814	2995	15.912660919587
3	2818	3000	12.625688316245
3	2823	3005	14.585530187427
3	2830	3010	8.193981473389
3	2834	3015	7.677354959888
3	2839	3020	10.974964002209
3	2845	3025	15.530442877728
3	2850	3030	10.157180965738
3	2859	3035	13.214013134582
3	2866	3040	15.634604521951
3	2870	3045	18.343231706675
3	2874	3050	19.600910532057
3	2881	3055	23.819447319552
3	2887	3060	24.793400591162
3	2892	3065	13.014253492001
3	2898	3070	17.158994396798
3	2906	3075	21.29230679066
3	2913	3080	24.198510029381
3	2919	3085	23.140850223358
3	2924	3090	23.067716452035
3	2929	3095	24.673528524509
3	2933	3100	23.630297929498
3	2938	3105	22.708553731183
3	2944	3110	21.619296095296
3	2948	3115	23.415165737808
3	2954	3120	17.075213783629
3	2958	3125	19.737093397288
3	2963	3130	22.527427452925
3	2967	3135	16.533601004596
3	2975	3140	20.681714211165
3	2980	3145	19.75828345789
3	2984	3150	13.935147579506
3	2988	3155	18.179195447287
3	2993	3160	22.496151148832
3	3001	3165	20.415219106213
3	3007	3170	12.575605507392
3	3011	3175	14.335253708976
3	3017	3180	18.53557568963
3	3022	3185	22.072935325013
3	3027	3190	24.466164013452
3	3032	3195	18.929758710388
3	3037	3200	20.126175701215
3	3041	3205	20.700091477958
3	3045	3210	23.797136981396
3	3049	3215	20.839226416004
3	3054	3220	23.628475556361
3	3059	3225	9.505627274166
3	3064	3230	6.953603180725
3	3068	3235	6.184784363892
3	3075	3245	8.817395480625
3	3082	3255	8.274058071198
3	3092	3265	8.226514987695
3	3098	3270	12.995067458104
3	3103	3275	14.663413077985
3	3107	3280	16.22843489845
3	3111	3285	17.033568483805
3	3116	3290	21.58899667208
3	3121	3295	23.141432062472
3	3127	3300	14.651016847722
3	3132	3305	11.325243210835
3	3136	3310	13.213253089103
3	3141	3315	17.907155928487
3	3147	3320	18.62254042106
3	3154	3325	11.08392874476
3	3158	3330	10.700635500497
3	3162	3335	15.084718639058
3	3166	3340	19.186163342841
3	3171	3345	23.893369101227
3	3176	3350	5.770964594741
3	3181	3355	8.941790399048
3	3185	3360	6.860822996567
3	3196	3375	7.363329728185
3	3200	3380	8.72125985114
3	3205	3385	13.458629399351
3	3211	3390	6.887254906286
3	3215	3395	5.310242443492
3	3219	3400	10.113641193848
3	3228	3415	8.495830561835
3	3237	3425	6.822889451508
3	3242	3430	9.74715747907
3	3247	3435	14.221838314563
3	3251	3440	14.829360862072
3	3255	3445	11.25474534157
3	3262	3455	7.791746003237
3	3269	3465	9.384924027002
3	3279	3475	9.428641570312
3	3283	3480	14.071956538236
3	3287	3485	17.682391304225
3	3291	3490	16.56644260147
3	3299	3500	7.591280932858
3	3303	3505	6.085717743552
3	3310	3515	9.963802563643
3	3319	3530	6.750254123547
3	3329	3540	5.641518111053
3	3333	3545	9.650511508297
3	3338	3550	13.488984687554
3	3342	3555	15.218766874963
3	3347	3560	14.751169989235
3	3352	3565	8.739827762041
3	3359	3570	6.060503433142
3	3363	3575	7.989102040058
3	3367	3580	12.265021367642
3	3371	3585	15.362372817173
3	3378	3595	8.587550920364
4	8	10	0
4	13	15	0
4	17	20	0
4	26	30	0
4	30	35	0
4	34	40	0
4	42	50	0
4	48	55	0
4	52	60	0
4	56	65	0
4	64	75	0
4	68	80	0
4	76	90	0
4	81	95	0
4	85	100	0
4	93	110	0
4	98	115	0
4	103	120	0
4	109	125	0
4	114	130	0
4	118	135	0
4	126	140	0
4	132	145	0
4	137	150	0
4	141	155	0
4	145	160	1
4	150	165	1
4	155	170	1
4	159	175	0
4	163	180	0
4	171	190	0
4	177	195	0
4	183	200	0
4	188	205	0
4	193	210	0
4	198	215	0
4	204	220	0
4	209	225	0
4	215	230	0
4	221	235	0
4	225	240	1
4	230	245	1
4	235	250	1
4	241	255	1
4	245	260	0
4	249	265	0
4	253	270	0
4	258	275	1
4	263	280	0
4	270	285	0
4	275	290	0
4	280	295	0
4	286	300	0
4	291	305	0
4	295	310	0
4	301	315	0
4	305	320	1
4	309	325	1
4	314	330	0
4	319	335	1
4	326	340	0
4	333	345	0
4	340	350	0
4	345	355	0
4	350	360	1
4	354	365	1
4	358	370	1
4	363	375	1
4	367	380	1
4	371	385	0
4	378	395	0
4	388	410	0
4	393	415	0
4	397	420	0
4	406	430	0
4	411	435	0
4	415	440	0
4	419	445	0
4	428	455	0
4	433	460	0
4	439	465	0
4	444	470	0
4	449	475	0
4	455	480	0
4	459	485	0
4	464	490	0
4	469	495	0
4	474	500	1
4	480	505	0
4	486	510	0
4	491	515	0
4	495	520	0
4	499	525	1
4	503	530	1
4	508	535	1
4	512	540	0
4	521	550	0
4	525	555	0
4	530	560	0
4	535	565	0
4	539	570	0
4	546	580	0
4	557	590	0
4	561	595	0
4	565	600	0
4	570	605	1
4	574	610	1
4	578	615	0
4	587	630	0
4	596	640	0
4	602	645	0
4	608	650	0
4	613	655	0
4	617	660	0
4	622	665	0
4	626	670	1
4	632	675	1
4	637	680	0
4	641	685	0
4	647	690	0
4	651	695	0
4	656	700	0
4	661	705	0
4	669	710	0
4	674	715	0
4	679	720	0
4	683	725	0
4	687	730	1
4	691	735	1
4	697	740	1
4	701	745	0
4	707	750	0
4	713	755	0
4	718	760	0
4	723	765	0
4	728	770	0
4	732	775	0
4	736	780	0
4	740	785	0
4	753	800	0
4	757	805	0
4	761	810	0
4	766	815	1
4	772	820	1
4	777	825	0
4	781	830	0
4	786	835	0
4	791	840	0
4	796	845	0
4	800	850	0
4	805	855	0
4	809	860	0
4	820	875	0
4	825	880	0
4	832	885	0
4	837	890	0
4	841	895	0
4	848	900	0
4	853	905	1
4	861	910	1
4	867	915	0
4	872	920	1
4	876	925	1
4	883	930	1
4	888	935	1
4	893	940	1
4	899	945	0
4	905	950	1
4	910	955	1
4	915	960	1
4	919	965	1
4	923	970	1
4	927	975	1
4	932	980	1
4	936	985	0
4	948	1005	0
4	952	1010	0
4	961	1025	0
4	968	1035	0
4	978	1050	0
4	982	1055	0
4	989	1065	0
4	997	1075	0
4	1003	1080	0
4	1007	1085	0
4	1014	1090	0
4	1019	1095	0
4	1024	1100	0
4	1028	1105	0
4	1035	1110	0
4	1039	1115	0
4	1043	1120	0
4	1047	1125	0
4	1052	1130	1
4	1056	1135	0
4	1066	1145	0
4	1071	1150	0
4	1075	1155	0
4	1080	1160	0
4	1084	1165	0
4	1091	1170	0
4	1095	1175	0
4	1100	1180	0
4	1105	1185	0
4	1110	1190	0
4	1116	1195	0
4	1120	1200	0
4	1126	1205	0
4	1133	1210	0
4	1138	1215	0
4	1143	1220	0
4	1147	1225	0
4	1153	1230	1
4	1159	1235	1
4	1164	1240	1
4	1168	1245	0
4	1176	1250	1
4	1181	1255	1
4	1185	1260	1
4	1189	1265	0
4	1195	1270	1
4	1201	1275	1
4	1207	1280	0
4	1212	1285	0
4	1216	1290	0
4	1220	1295	1
4	1225	1300	1
4	1231	1305	1
4	1237	1310	0
4	1244	1315	0
4	1248	1320	0
4	1252	1325	0
4	1257	1330	1
4	1262	1335	1
4	1266	1340	0
4	1271	1345	0
4	1275	1350	0
4	1282	1360	0
4	1291	1370	0
4	1296	1375	0
4	1301	1380	0
4	1305	1385	0
4	1310	1390	0
4	1314	1395	0
4	1324	1410	0
4	1328	1415	0
4	1336	1425	0
4	1340	1430	0
4	1348	1440	0
4	1353	1445	0
4	1359	1450	0
4	1363	1455	0
4	1367	1460	0
4	1375	1470	0
4	1380	1475	0
4	1384	1480	0
4	1395	1495	0
4	1401	1500	0
4	1407	1505	0
4	1412	1510	0
4	1416	1515	0
4	1423	1520	0
4	1431	1525	1
4	1437	1530	1
4	1443	1535	0
4	1449	1540	1
4	1455	1545	1
4	1459	1550	1
4	1463	1555	1
4	1467	1560	1
4	1473	1565	1
4	1477	1570	0
4	1482	1575	0
4	1486	1580	0
4	1501	1600	0
4	1505	1605	0
4	1510	1610	0
4	1515	1615	0
4	1519	1620	1
4	1525	1625	0
4	1529	1630	0
4	1535	1635	0
4	1539	1640	0
4	1543	1645	0
4	1547	1650	0
4	1558	1660	0
4	1562	1665	0
4	1566	1670	0
4	1570	1675	0
4	1575	1680	1
4	1582	1685	0
4	1586	1690	0
4	1590	1695	0
4	1595	1700	0
4	1599	1705	0
4	1608	1720	0
4	1618	1730	0
4	1623	1735	0
4	1627	1740	0
4	1633	1745	0
4	1637	1750	0
4	1641	1755	0
4	1646	1760	0
4	1650	1765	0
4	1658	1775	0
4	1662	1780	0
4	1674	1795	0
4	1678	1800	0
4	1682	1805	0
4	1686	1810	0
4	1699	1830	0
4	1704	1835	0
4	1709	1840	0
4	1713	1845	0
4	1717	1850	0
4	1727	1865	0
4	1731	1870	0
4	1740	1885	0
4	1751	1900	0
4	1759	1905	0
4	1763	1910	0
4	1767	1915	0
4	1774	1920	0
4	1778	1925	1
4	1783	1930	0
4	1787	1935	0
4	1791	1940	1
4	1796	1945	0
4	1802	1950	0
4	1808	1955	0
4	1812	1960	0
4	1817	1965	0
4	1821	1970	0
4	1826	1975	0
4	1832	1980	0
4	1837	1985	0
4	1841	1990	0
4	1847	1995	0
4	1853	2000	0
4	1859	2005	0
4	1866	2010	0
4	1873	2015	0
4	1877	2020	0
4	1881	2025	1
4	1885	2030	1
4	1890	2035	1
4	1897	2040	0
4	1903	2045	0
4	1907	2050	0
4	1911	2055	0
4	1915	2060	0
4	1920	2065	1
4	1924	2070	0
4	1932	2080	0
4	1937	2085	0
4	1942	2090	0
4	1947	2095	0
4	1951	2100	0
4	1959	2110	0
4	1964	2115	0
4	1968	2120	0
4	1978	2130	0
4	1982	2135	0
4	1987	2140	0
4	1992	2145	0
4	1996	2150	0
4	2002	2155	0
4	2006	2160	0
4	2010	2165	0
4	2020	2175	0
4	2025	2180	0
4	2031	2185	0
4	2038	2190	0
4	2043	2195	0
4	2048	2200	0
4	2053	2205	1
4	2057	2210	1
4	2063	2215	1
4	2068	2220	1
4	2074	2225	1
4	2078	2230	0
4	2084	2235	1
4	2088	2240	1
4	2092	2245	1
4	2096	2250	0
4	2100	2255	1
4	2109	2270	0
4	2122	2290	0
4	2128	2295	0
4	2133	2300	0
4	2139	2305	0
4	2144	2310	0
4	2150	2315	0
4	2154	2320	0
4	2158	2325	1
4	2162	2330	1
4	2167	2335	1
4	2172	2340	0
4	2177	2345	0
4	2181	2350	0
4	2193	2370	0
4	2198	2375	0
4	2202	2380	0
4	2213	2400	0
4	2223	2415	0
4	2232	2420	0
4	2237	2425	0
4	2241	2430	0
4	2249	2435	0
4	2254	2440	1
4	2258	2445	1
4	2264	2450	0
4	2268	2455	1
4	2272	2460	1
4	2276	2465	0
4	2280	2470	1
4	2292	2480	0
4	2298	2485	0
4	2303	2490	0
4	2307	2495	0
4	2311	2500	1
4	2315	2505	1
4	2321	2510	1
4	2326	2515	0
4	2334	2520	0
4	2341	2525	0
4	2347	2530	0
4	2351	2535	0
4	2358	2540	1
4	2363	2545	1
4	2368	2550	1
4	2372	2555	0
4	2378	2560	1
4	2383	2565	1
4	2387	2570	1
4	2393	2575	0
4	2398	2580	1
4	2402	2585	1
4	2408	2590	0
4	2414	2595	1
4	2418	2600	1
4	2422	2605	0
4	2428	2610	1
4	2433	2615	1
4	2437	2620	0
4	2441	2625	0
4	2447	2630	0
4	2451	2635	0
4	2456	2640	0
4	2463	2645	0
4	2472	2650	0
4	2479	2655	0
4	2486	2660	0
4	2491	2665	0
4	2495	2670	1
4	2501	2675	1
4	2506	2680	1
4	2512	2685	1
4	2516	2690	0
4	2524	2695	1
4	2528	2700	1
4	2533	2705	1
4	2537	2710	0
4	2542	2715	1
4	2547	2720	0
4	2554	2725	0
4	2560	2730	0
4	2566	2735	0
4	2571	2740	0
4	2575	2745	1
4	2581	2750	1
4	2588	2755	1
4	2595	2760	1
4	2600	2765	0
4	2605	2770	1
4	2611	2775	1
4	2615	2780	1
4	2620	2785	1
4	2625	2790	1
4	2631	2795	1
4	2637	2800	0
4	2641	2805	0
4	2645	2810	0
4	2649	2815	1
4	2654	2820	1
4	2659	2825	0
4	2664	2830	0
4	2668	2835	0
4	2681	2860	0
4	2688	2870	0
4	2699	2880	0
4	2703	2885	0
4	2710	2890	0
4	2715	2895	0
4	2721	2900	1
4	2725	2905	0
4	2729	2910	1
4	2733	2915	1
4	2739	2920	1
4	2746	2925	0
4	2751	2930	0
4	2755	2935	0
4	2760	2940	0
4	2765	2945	1
4	2770	2950	1
4	2774	2955	0
4	2778	2960	0
4	2784	2965	0
4	2790	2970	0
4	2795	2975	0
4	2800	2980	0
4	2804	2985	0
4	2809	2990	0
4	2814	2995	0
4	2818	3000	0
4	2823	3005	0
4	2830	3010	0
4	2834	3015	0
4	2839	3020	0
4	2845	3025	0
4	2850	3030	0
4	2859	3035	0
4	2866	3040	0
4	2870	3045	0
4	2874	3050	0
4	2881	3055	1
4	2887	3060	1
4	2892	3065	0
4	2898	3070	0
4	2906	3075	1
4	2913	3080	1
4	2919	3085	1
4	2924	3090	1
4	2929	3095	1
4	2933	3100	1
4	2938	3105	1
4	2944	3110	1
4	2948	3115	1
4	2954	3120	0
4	2958	3125	0
4	2963	3130	1
4	2967	3135	0
4	2975	3140	1
4	2980	3145	0
4	2984	3150	0
4	2988	3155	0
4	2993	3160	1
4	3001	3165	1
4	3007	3170	0
4	3011	3175	0
4	3017	3180	0
4	3022	3185	1
4	3027	3190	1
4	3032	3195	0
4	3037	3200	1
4	3041	3205	1
4	3045	3210	1
4	3049	3215	1
4	3054	3220	1
4	3059	3225	0
4	3064	3230	0
4	3068	3235	0
4	3075	3245	0
4	3082	3255	0
4	3092	3265	0
4	3098	3270	0
4	3103	3275	0
4	3107	3280	0
4	3111	3285	0
4	3116	3290	1
4	3121	3295	1
4	3127	3300	0
4	3132	3305	0
4	3136	3310	0
4	3141	3315	0
4	3147	3320	0
4	3154	3325	0
4	3158	3330	0
4	3162	3335	0
4	3166	3340	0
4	3171	3345	1
4	3176	3350	0
4	3181	3355	0
4	3185	3360	0
4	3196	3375	0
4	3200	3380	0
4	3205	3385	0
4	3211	3390	0
4	3215	3395	0
4	3219	3400	0
4	3228	3415	0
4	3237	3425	0
4	3242	3430	0
4	3247	3435	0
4	3251	3440	0
4	3255	3445	0
4	3262	3455	0
4	3269	3465	0
4	3279	3475	0
4	3283	3480	0
4	3287	3485	0
4	3291	3490	0
4	3299	3500	0
4	3303	3505	0
4	3310	3515	0
4	3319	3530	0
4	3329	3540	0
4	3333	3545	0
4	3338	3550	0
4	3342	3555	0
4	3347	3560	0
4	3352	3565	0
4	3359	3570	0
4	3363	3575	0
4	3367	3580	0
4	3371	3585	0
4	3378	3595	0
5	129	144.333972113373	1
5	212	226.68229699076	1
5	218	233.041699844688	1
5	329	344.516462645662	1
5	330	344.61802493964	1
5	336	345.542818902026	1
5	337	346.334526433179	1
5	483	508.242673837249	1
5	666	709.657313055879	1
5	845	896.753189985711	1
5	856	907.184731767043	1
5	857	908.330953393078	1
5	858	909.113332245	1
5	864	912.211980695355	1
5	880	927.523409726891	1
5	896	941.381986382712	1
5	902	947.119409250763	1
5	1130	1209.998239433945	1
5	1156	1233.240310621328	1
5	1172	1249.498863017619	1
5	1173	1249.860958568192	1
5	1204	1277.330150786071	1
5	1240	1313.381068674113	1
5	1241	1314.17612875811	1
5	1420	1519.234366876225	1
5	1426	1520.756158434512	1
5	1427	1524.450758534208	1
5	1428	1524.529404153083	1
5	1434	1528.480138383329	1
5	1440	1533.662687926036	1
5	1446	1538.704375860249	1
5	1452	1541.677791335694	1
5	1756	1904.397288142327	1
5	1862	2007.151874232311	1
5	1863	2009.923216599377	1
5	1869	2012.063353309948	1
5	1870	2013.69940521658	1
5	2034	2186.033496047635	1
5	2035	2186.821856311781	1
5	2071	2224.949113782965	1
5	2147	2312.869654291681	1
5	2229	2417.875769733363	1
5	2245	2433.539385171084	1
5	2246	2434.105251833045	1
5	2289	2477.781463667762	1
5	2295	2483.634913935345	1
5	2331	2519.485134194883	1
5	2337	2522.408386617179	1
5	2338	2524.960949496857	1
5	2344	2527.377769938066	1
5	2355	2539.752008530898	1
5	2411	2592.949105084891	1
5	2467	2647.925373317685	1
5	2468	2648.452254020837	1
5	2469	2648.578559629841	1
5	2475	2653.723515629842	1
5	2476	2654.062795020082	1
5	2482	2656.206572474161	1
5	2483	2656.48999187995	1
5	2509	2682.878021560777	1
5	2520	2691.503410835526	1
5	2521	2693.658919971607	1
5	2557	2727.435333439326	1
5	2563	2734.469227567471	1
5	2584	2750.302703988616	1
5	2585	2754.997797006233	1
5	2591	2756.913648620333	1
5	2592	2757.338005675532	1
5	2608	2773.27019951844	1
5	2634	2798.92610823107	1
5	2707	2889.298190788625	1
5	2718	2897.286220131049	1
5	2854	3031.183283280243	1
5	2855	3032.103152998395	1
5	2856	3034.873573722633	1
5	2862	3036.374167939029	1
5	2863	3038.515458083088	1
5	2884	3056.416068911374	1
5	2895	3067.062753372779	1
5	2901	3070.743711563299	1
5	2902	3070.996752609885	1
5	2903	3074.636867024856	1
5	2909	3076.533729844119	1
5	2910	3079.241092312437	1
5	2916	3082.858469879778	1
5	2972	3139.727441125943	1
5	2998	3164.411799968893	1
5	3004	3168.919144548324	1
5	3151	3324.546004756187	1

