version 2
run General-0-20210118-17:37:05-7652
attr configname General
attr datetime 20210118-17:37:05
attr experiment General
attr inifile omnetpp.ini
attr iterationvars ""
attr iterationvarsf ""
attr measurement ""
attr network slottedNetwork
attr processid 7652
attr repetition 0
attr replication #0
attr resultdir results
attr runnumber 0
attr seedset 0
param **.numTransmitters 1
param **.numChannels 1
param **.sendProbability 1
param **.expMean 5s
param **.timeSlotSize 5s
param **.thresh 20s
param **.deterministicInterarrivalTime false

vector 0 slottedNetwork.transmitters[0] numPacketCreated:vector ETV
attr source numPacketCreatedSignal
0	1	3.979372522829	1
vector 1 slottedNetwork.ch throughput:vector ETV
attr source throughputSignal
1	2	5	0
0	5	8.472174465249	1
1	6	10	1
vector 2 slottedNetwork.receivers[0] numPacketReceived:vector ETV
attr source numPacketReceivedSignal
vector 3 slottedNetwork.receivers[0] responseTime:vector ETV
attr source responseTimeSignal
vector 4 slottedNetwork.receivers[0] threshold:vector ETV
attr source thresholdSignal
2	8	10	1
3	8	10	6.020627477171
4	8	10	0
0	10	14.751828255486	1
0	18	24.049849315859	1
0	22	28.665964973213	1
0	30	38.423691652635	1
0	34	42.359697352545	1
0	42	51.754517623559	1
0	43	54.509760056911	1
0	47	59.394792188878	1
0	52	64.585588692197	1
0	57	67.011229510805	1
0	58	69.88882549522	1
0	63	71.654621190908	1
0	72	82.77224330109	1
0	73	83.064166646555	1
0	86	99.638728046196	1
0	91	101.230508750405	1
0	92	103.648519275147	1
0	97	106.895751016401	1
0	102	114.740231604516	1
0	111	123.101287606141	1
0	116	126.864658172705	1
0	121	130.134071008811	1
0	122	134.331235273312	1
0	127	136.825595318391	1
0	136	149.816865747636	1
0	144	158.858712069011	1
0	145	159.227138846336	1
0	149	161.285028827549	1
0	150	161.74083395817	1
0	155	166.96389649971	1
0	156	167.066024441705	1
0	157	169.362265127981	1
0	166	178.299703445174	1
0	179	194.050553088554	1
0	188	201.579474381741	1
0	189	202.335628650066	1
0	198	212.537199939775	1
0	206	222.741661019334	1
0	217	241.967770365043	1
0	221	245.176316228434	1
0	226	253.202514013742	1
0	234	261.272524388205	1
0	235	264.367171686339	1
0	239	268.041993792288	1
0	248	275.624673662239	1
0	253	281.30436837079	1
0	254	281.93374041798	1
0	259	288.309878929098	1
0	264	293.417038300844	1
0	269	297.778644276055	1
0	270	298.552292678555	1
0	275	302.406465970892	1
0	288	316.878568360827	1
0	293	323.985391761296	1
0	298	327.674528220076	1
0	299	328.234259023239	1
0	304	330.912087624378	1
0	305	334.120561134534	1
0	310	335.656962895297	1
0	311	336.687979305449	1
0	316	344.129253434207	1
0	325	350.805704357327	1
0	326	353.851116473242	1
0	331	355.071358926925	1
0	332	359.273032454986	1
0	333	359.999422591447	1
0	338	360.094265437452	1
0	339	362.053119490836	1
0	344	366.860024186165	1
0	345	367.670706633395	1
0	350	372.40569001927	1
0	351	373.662899679644	1
0	356	378.460639566485	1
0	361	380.903424813025	1
0	374	395.292999919413	1
0	383	406.937566790484	1
0	388	412.663261563984	1
0	393	415.651991948076	1
0	394	417.879584423332	1
0	399	422.627057340816	1
0	404	425.499719374522	1
0	413	437.131474682994	1
0	418	443.112013680279	1
0	419	443.634819809155	1
0	420	443.945396261487	1
0	437	461.44646468376	1
0	442	466.941027021515	1
0	447	472.235197678953	1
0	452	477.788184907389	1
0	453	478.725315237478	1
0	454	479.906348767892	1
0	459	482.123368910995	1
0	460	482.813512353137	1
0	465	489.758725802092	1
0	470	491.653535623505	1
0	475	496.333843422362	1
0	476	498.594353723485	1
0	481	500.559916510005	1
0	482	504.782055477643	1
0	483	504.977971259708	1
0	488	507.864592813741	1
0	493	512.893947839574	1
0	514	535.166432070454	1
0	527	551.131165280722	1
0	528	551.669340821502	1
0	533	556.958472888263	1
0	534	558.129980482141	1
0	539	563.170076709242	1
0	540	564.04964443637	1
0	565	590.850146187586	1
0	570	596.143859763057	1
0	575	600.503439031186	1
0	576	601.963841697522	1
0	577	604.639165082938	1
0	582	607.778872987894	1
0	587	610.997777995907	1
0	588	612.399163038302	1
0	593	617.283483408655	1
0	594	618.149120689386	1
0	599	620.211626838998	1
0	600	620.79640388796	1
0	605	626.412245395627	1
0	610	631.752606381375	1
0	611	633.660385598246	1
0	612	634.403946944507	1
0	621	641.93712361087	1
0	622	643.031526593406	1
0	635	657.967476052666	1
0	640	660.267545841367	1
0	645	665.698892745758	1
0	650	674.300551034341	1
0	651	674.368873926495	1
0	652	674.87959833412	1
0	657	679.755108004902	1
0	666	688.854202601324	1
0	671	694.453274430094	1
0	672	694.958448306639	1
0	689	712.826390168361	1
0	706	731.571547466283	1
0	715	742.098153970244	1
0	720	745.259836952223	1
0	721	748.822754918889	1
0	738	767.632391341409	1
0	739	767.919025973528	1
0	744	772.561418458035	1
0	749	775.56115289124	1
0	754	782.282379252002	1
0	755	782.383329892733	1
0	756	782.583211388024	1
0	761	785.497603332359	1
0	762	787.159654537178	1
0	779	806.617505151405	1
0	780	807.257788977961	1
0	781	809.48488628756	1
0	786	811.240766734467	1
0	787	814.518998156285	1
0	792	815.150941338412	1
0	797	820.985308971155	1
0	798	822.898813715464	1
0	807	833.519999700472	1
0	812	836.194421579256	1
0	821	848.713980494682	1
0	822	849.045467502093	1
0	827	850.267444742502	1
0	832	856.163392377828	1
0	837	860.327609958159	1
0	838	864.50809761801	1
0	847	874.524300230546	1
0	852	876.066374431035	1
0	853	879.622614117121	1
0	858	883.326408869356	1
0	871	895.75432065424	1
0	872	896.247572196331	1
0	881	908.949094736125	1
0	886	913.238572941496	1
0	887	913.672425353194	1
0	900	926.918704996576	1
0	901	928.545407074221	1
0	906	930.463208144714	1
0	907	930.510211898034	1
0	912	936.014441448488	1
0	921	945.251079703497	1
0	922	945.957733271301	1
0	927	951.166636542198	1
0	932	957.466305592743	1
0	941	966.672717950178	1
0	942	968.380988785309	1
0	943	969.918577404121	1
0	948	970.930329596957	1
0	949	973.46633021324	1
0	954	977.881975423036	1
0	959	981.905962422043	1
0	960	982.007524716021	1
0	961	982.908785975945	1
0	970	991.73749133801	1
0	971	994.046145818232	1
0	972	994.069678520694	1
0	973	994.861386051847	1
0	982	1000.524556761709	1
0	983	1004.739971922451	1
0	988	1006.313580226724	1
0	993	1012.396123493907	1
0	998	1019.039912862658	1
0	1003	1020.741646553834	1
0	1016	1037.117362442408	1
0	1017	1039.956883209809	1
0	1022	1041.386988072349	1
0	1027	1048.442110118821	1
0	1032	1052.734074957966	1
0	1037	1055.255793990905	1
0	1038	1059.738748344834	1
0	1051	1071.057416224138	1
0	1056	1075.30352028196	1
0	1061	1080.396813932054	1
0	1062	1081.65891389651	1
0	1071	1092.766448388881	1
0	1084	1108.027856673303	1
0	1089	1113.725896490968	1
0	1094	1116.689016628229	1
0	1095	1119.670913599877	1
0	1104	1129.038212999163	1
0	1121	1148.253245915381	1
0	1126	1154.264438751614	1
0	1127	1154.882071988425	1
0	1132	1156.647172654796	1
0	1137	1163.931265447617	1
0	1146	1172.335876470347	1
0	1147	1174.98948895343	1
0	1152	1177.514582692203	1
0	1157	1183.140992776422	1
0	1166	1193.788489756762	1
0	1171	1195.225542137112	1
0	1172	1199.578221268744	1
0	1177	1201.456915480778	1
0	1186	1212.131067730694	1
0	1199	1228.95291999595	1
0	1204	1234.849834664173	1
0	1209	1239.289141716357	1
0	1218	1245.74868806036	1
0	1223	1251.137862481042	1
0	1224	1254.616859785544	1
0	1229	1258.426198642024	1
0	1241	1274.053540430315	1
0	1245	1275.363826638692	1
0	1250	1280.527811691919	1
0	1251	1283.039365683224	1
0	1256	1285.796345633895	1
0	1261	1290.618613461364	1
0	1266	1295.280627863397	1
0	1267	1298.50115140501	1
0	1268	1298.59805031175	1
0	1273	1301.773688889904	1
0	1274	1303.568324969253	1
0	1279	1309.863542555572	1
0	1288	1315.26014354885	1
0	1289	1316.958467211762	1
0	1290	1318.671465335252	1
0	1295	1321.089643768199	1
0	1300	1325.901519047054	1
0	1305	1332.816415079738	1
0	1310	1335.616220430108	1
0	1319	1346.15345845486	1
0	1320	1346.881328347099	1
0	1321	1347.424063839573	1
0	1322	1349.1951845008	1
0	1323	1349.679798273684	1
0	1328	1353.899240636638	1
0	1333	1356.084380705508	1
0	1338	1360.553026097036	1
0	1339	1364.565786025829	1
0	1344	1368.836184704044	1
0	1345	1369.007201795834	1
0	1350	1374.30224872274	1
0	1367	1391.664926119152	1
0	1372	1396.944174162451	1
0	1373	1398.879824623196	1
0	1378	1401.7028771288	1
0	1379	1402.953284603689	1
0	1388	1414.296454567151	1
0	1393	1415.057922693423	1
0	1394	1417.348787113214	1
0	1395	1417.860390187477	1
0	1400	1420.722697944619	1
0	1417	1441.411746747171	1
0	1426	1452.536320033298	1
0	1427	1454.044149599415	1
0	1436	1462.248637489049	1
0	1441	1466.09902178678	1
0	1446	1472.184119263467	1
0	1451	1475.154486755086	1
0	1452	1475.68254997323	1
0	1453	1476.206959151232	1
0	1462	1488.803369801648	1
0	1467	1490.975098081367	1
0	1472	1497.238135705925	1
0	1477	1500.405448794538	1
0	1502	1534.232401394223	1
0	1511	1543.43106531961	1
0	1512	1544.240415753171	1
0	1525	1555.991302201925	1
0	1533	1566.120846287441	1
0	1534	1566.312260851865	1
0	1535	1567.198888727591	1
0	1539	1570.748478363711	1
0	1544	1575.528310483323	1
0	1545	1576.441003492736	1
0	1546	1577.101922040809	1
0	1551	1584.651039318856	1
0	1560	1594.070683751786	1
0	1569	1604.080616229416	1
0	1578	1612.31421173605	1
0	1579	1614.964226126733	1
0	1584	1619.173630935393	1
0	1585	1619.927585986362	1
0	1590	1622.541936136804	1
0	1591	1622.710870064564	1
0	1592	1623.069246986128	1
0	1609	1643.318481180151	1
0	1614	1649.295674011562	1
0	1619	1651.632036843612	1
0	1620	1654.65353220285	1
0	1625	1657.377817843573	1
0	1630	1663.779488862635	1
0	1631	1664.03905162355	1
0	1640	1674.102915304579	1
0	1645	1676.377474528538	1
0	1658	1694.927277488057	1
0	1663	1695.011116318018	1
0	1668	1704.694002505474	1
0	1673	1706.005649051305	1
0	1674	1706.064565210897	1
0	1679	1713.303535620839	1
0	1684	1715.534799723434	1
0	1693	1729.957858483946	1
0	1702	1736.50435030406	1
0	1707	1743.435807064166	1
0	1708	1744.377281940262	1
0	1713	1746.450344653557	1
0	1718	1750.13100015349	1
0	1719	1753.493302737658	1
0	1720	1753.772653002101	1
0	1725	1755.842547615464	1
0	1726	1756.958243655968	1
0	1727	1757.947391193263	1
0	1728	1758.040868545368	1
0	1729	1758.978463301382	1
0	1738	1766.870526911912	1
0	1739	1769.983513631804	1
0	1744	1771.251042157521	1
0	1753	1781.631197459735	1
0	1754	1783.749482966519	1
0	1767	1798.172204408553	1
0	1780	1811.333298721297	1
0	1785	1816.018992309914	1
0	1790	1822.112976326631	1
0	1795	1826.652796463254	1
0	1796	1826.81458048648	1
0	1801	1834.468736617817	1
0	1806	1835.368523325576	1
0	1807	1838.834522173264	1
0	1812	1843.691932963739	1
0	1813	1843.950347492716	1
0	1818	1848.254965676119	1
0	1823	1854.259820208829	1
0	1828	1855.618160560541	1
0	1849	1880.013825000509	1
0	1858	1893.620566280074	1
0	1863	1895.175405304923	1
0	1864	1899.934553842634	1
0	1873	1905.61753631892	1
0	1874	1909.452934591782	1
0	1883	1919.438794429232	1
0	1888	1923.895687313782	1
0	1897	1930.84407263266	1
0	1902	1937.392999489468	1
0	1912	1954.082671158737	1
0	1916	1955.952103638253	1
0	1917	1959.99200390525	1
0	1922	1962.531329518683	1
0	1923	1963.725093882922	1
0	1924	1964.902716750015	1
0	1929	1966.160709815579	1
0	1930	1967.190870057994	1
0	1931	1968.425166401988	1
0	1944	1982.870544361482	1
0	1949	1987.085438238554	1
0	1954	1993.812175404724	1
0	1959	1996.820570337346	1
0	1964	2000.191793185527	1
0	1977	2017.76418658821	1
0	1978	2019.05425040791	1
0	1983	2024.759939922207	1
0	1988	2026.227478181823	1
0	1989	2026.673249631799	1
0	1990	2026.972154446376	1
0	1991	2027.262516256956	1
0	1996	2030.112004083488	1
0	1997	2033.457572701938	1
0	2002	2035.32592167391	1
0	2011	2045.969272146567	1
0	2016	2051.928562664841	1
0	2033	2070.662035733967	1
0	2034	2073.034117185632	1
0	2039	2077.841315043488	1
0	2040	2078.831153720158	1
0	2045	2082.741032324536	1
0	2046	2082.8659740911	1
0	2055	2092.507774775499	1
0	2056	2092.855863130867	1
0	2061	2099.665521752395	1
0	2070	2105.353214280098	1
0	2071	2108.609367939686	1
0	2076	2111.632274031362	1
0	2081	2117.284051760915	1
0	2086	2121.129650766397	1
0	2091	2125.799952429423	1
0	2100	2137.149152508344	1
0	2105	2143.420168858799	1
0	2126	2166.618431490668	1
0	2127	2169.788081587639	1
0	2132	2171.010536697854	1
0	2133	2174.05470126654	1
0	2138	2179.494223434612	1
0	2151	2191.338814288797	1
0	2152	2192.866838797869	1
0	2153	2193.604818962325	1
0	2154	2193.709155055376	1
0	2159	2195.010912113112	1
0	2164	2202.112829391038	1
0	2173	2212.780645828413	1
0	2174	2214.709084298639	1
0	2187	2226.448303105786	1
0	2188	2228.866495043234	1
0	2193	2234.05574542068	1
0	2198	2238.493255063099	1
0	2203	2240.456120204037	1
0	2208	2249.346836888207	1
0	2213	2253.013675254047	1
0	2218	2257.971196718533	1
0	2219	2257.971473478009	1
0	2228	2268.275579682413	1
0	2233	2270.144396151496	1
0	2234	2271.74226942586	1
0	2235	2274.5131235711	1
0	2244	2282.5117207803	1
0	2253	2293.340539184673	1
0	2254	2294.367278028351	1
0	2263	2300.062566281715	1
0	2276	2315.328489629682	1
0	2277	2318.373712693226	1
0	2282	2324.189279110353	1
0	2287	2327.491794509099	1
0	2288	2328.705386977458	1
0	2297	2336.478701666502	1
0	2309	2351.201103053618	1
0	2310	2352.5043037005	1
0	2314	2359.066843665328	1
0	2323	2369.680576935038	1
0	2328	2371.145334227471	1
0	2329	2373.027480985078	1
0	2330	2374.227098582259	1
0	2346	2390.012576289337	1
0	2347	2393.663714615532	1
0	2351	2396.854657643496	1
0	2352	2396.984646369462	1
0	2357	2403.201400259205	1
0	2358	2404.364025351129	1
0	2363	2405.198398557293	1
0	2364	2407.962590410552	1
0	2369	2414.517452251354	1
0	2374	2416.860834631239	1
0	2379	2422.056862814146	1
0	2384	2425.17100936297	1
0	2385	2426.380607586826	1
0	2386	2428.006687676707	1
0	2387	2429.038477644732	1
0	2392	2433.457405924897	1
0	2401	2441.697786790702	1
0	2410	2451.667982797087	1
0	2415	2458.541382566096	1
0	2416	2459.166545515713	1
0	2421	2464.783848013453	1
0	2426	2468.426467227125	1
0	2431	2470.047462794557	1
0	2432	2470.755672968533	1
0	2433	2471.716980172744	1
0	2438	2478.02604354018	1
0	2443	2484.121040266087	1
0	2448	2486.642439932344	1
0	2449	2489.75262452775	1
0	2454	2493.91951573098	1
0	2463	2503.095832745678	1
0	2464	2504.108126564168	1
0	2469	2505.254348190203	1
0	2470	2506.036727042125	1
0	2471	2506.938098540016	1
0	2476	2510.285801494321	1
0	2477	2510.952504610684	1
0	2478	2513.149781563148	1
0	2483	2519.551903333042	1
0	2496	2533.655083075117	1
0	2497	2533.80971453292	1
0	2506	2541.057488415058	1
0	2511	2547.92920348716	1
0	2516	2554.834018965494	1
0	2521	2555.319857357329	1
0	2530	2567.022317160616	1
0	2531	2568.248307623828	1
0	2532	2568.68385054012	1
0	2541	2575.600432870876	1
0	2542	2579.617391684212	1
0	2551	2586.195522975696	1
0	2556	2590.586598369287	1
0	2557	2590.820037087509	1
0	2570	2607.162519091624	1
0	2571	2608.335798337906	1
0	2576	2610.06339625645	1
0	2577	2611.754169830672	1
0	2578	2613.131809515864	1
0	2583	2618.786401911807	1
0	2584	2619.31483778233	1
0	2585	2619.640402106263	1
0	2586	2619.723232578371	1
0	2591	2623.778937689511	1
0	2604	2637.041730267113	1
0	2605	2637.088145389003	1
0	2610	2642.630194160073	1
0	2619	2651.580142182479	1
0	2624	2659.269285754862	1
0	2645	2680.049141232678	1
0	2646	2681.703690638559	1
0	2651	2687.782143005352	1
0	2656	2692.196545730138	1
0	2657	2693.198756705567	1
0	2658	2693.529216759034	1
0	2663	2697.120449159574	1
0	2668	2700.444487907332	1
0	2669	2704.787316564661	1
0	2686	2723.7574354801	1
0	2695	2731.502493875875	1
0	2704	2741.960276738991	1
0	2709	2746.623336015335	1
0	2710	2748.686985348969	1
0	2711	2749.919064460033	1
0	2728	2766.213669345956	1
0	2729	2769.250065789053	1
0	2734	2770.567951353229	1
0	2743	2781.122395225143	1
0	2756	2796.033398602506	1
0	2757	2799.422408612781	1
0	2770	2813.605609579658	1
0	2775	2819.891794557511	1
0	2784	2827.91908837285	1
0	2789	2831.248300806035	1
0	2794	2836.225619022868	1
0	2799	2842.390021338022	1
0	2808	2852.758828653522	1
0	2813	2856.206001342762	1
0	2814	2857.939767861706	1
0	2823	2867.246926076616	1
0	2832	2876.697434567097	1
0	2833	2877.777915650068	1
0	2838	2882.587975283018	1
0	2847	2890.009187696268	1
0	2848	2890.07581392041	1
0	2861	2908.374100574235	1
0	2866	2910.506779634417	1
0	2875	2920.420524157434	1
0	2876	2921.222194629867	1
0	2881	2928.802539278992	1
0	2895	2948.842287553364	1
0	2906	2969.851584684603	1
0	2910	2973.105571396399	1
0	2918	2980.108949881201	1
0	2919	2983.548667273506	1
0	2920	2983.568948880111	1
0	2924	2988.669884319885	1
0	2929	2990.239873810202	1
0	2930	2992.538830399081	1
0	2935	2995.18116654059	1
0	2936	2995.917291727155	1
0	2937	2998.71233007711	1
0	2946	3007.345496975821	1
0	2947	3009.113479852136	1
0	2952	3010.166146293157	1
0	2953	3012.729719506305	1
0	2958	3016.309946096273	1
0	2959	3016.952847282654	1
0	2960	3018.222904174405	1
0	2977	3037.9610705122	1
0	2978	3038.475912330796	1
0	2983	3041.08130643622	1
0	2992	3050.990758141764	1
0	2997	3055.201439655951	1
0	3010	3073.24614468087	1
0	3015	3075.351111171115	1
0	3028	3091.550926005619	1
0	3033	3099.327397807392	1
0	3045	3111.179335710462	1
0	3046	3113.829143606822	1
0	3054	3121.26629237852	1
0	3055	3123.492039075552	1
0	3060	3125.517953487264	1
0	3061	3128.067907656511	1
0	3062	3128.49080511532	1
0	3067	3130.287274640951	1
0	3068	3132.90211290923	1
0	3077	3140.365273730192	1
0	3078	3141.686626050871	1
0	3087	3154.719485062476	1
0	3092	3155.430112619439	1
0	3093	3157.397624675052	1
0	3094	3157.672161537807	1
0	3107	3172.946460432843	1
0	3112	3179.412199726822	1
0	3113	3179.482432683034	1
0	3114	3179.539898934077	1
0	3119	3183.352017355151	1
0	3128	3190.713038145119	1
0	3129	3192.529249239628	1
0	3130	3193.323915137909	1
0	3139	3204.045842460476	1
0	3140	3204.460153825069	1
0	3145	3205.90271737681	1
0	3146	3206.372090113223	1
0	3151	3212.028983951245	1
0	3156	3217.60342106078	1
0	3165	3225.918249964151	1
0	3166	3227.325870076506	1
0	3171	3230.15534278468	1
0	3172	3232.883631358517	1
0	3177	3239.857976814833	1
0	3182	3243.933068469314	1
0	3191	3252.781167585364	1
0	3200	3262.631455413326	1
0	3205	3265.013848326315	1
0	3210	3271.506076504338	1
0	3211	3272.013746924045	1
0	3212	3273.589547067624	1
0	3217	3275.069056433864	1
0	3218	3275.773895855939	1
0	3223	3280.255541881042	1
0	3224	3280.540374543376	1
0	3225	3283.776248063591	1
0	3230	3285.571054655474	1
0	3231	3288.917569015404	1
0	3236	3290.437426811548	1
0	3237	3293.504622259509	1
0	3242	3296.549944536127	1
0	3247	3300.267860495008	1
0	3252	3306.016567433757	1
0	3253	3308.933686288934	1
0	3258	3314.881167545609	1
0	3267	3324.455378833822	1
0	3272	3326.122395525699	1
0	3273	3328.963247944411	1
0	3278	3331.352837881967	1
0	3287	3340.121411107085	1
0	3288	3341.120688796688	1
0	3289	3344.680729124812	1
0	3298	3352.449456634973	1
0	3299	3352.901142855381	1
0	3300	3353.193782350114	1
0	3305	3358.588416892612	1
0	3310	3364.558483745588	1
0	3315	3365.715588605364	1
0	3320	3373.256664763499	1
0	3329	3382.652256934549	1
0	3338	3390.164320903103	1
0	3343	3395.882774006036	1
0	3344	3397.384399407464	1
0	3345	3398.366708836948	1
0	3350	3400.707241103122	1
0	3351	3401.069336653695	1
0	3356	3405.498139883844	1
0	3357	3405.546816930547	1
0	3358	3407.139736169942	1
0	3367	3418.270156117151	1
0	3372	3420.587106254851	1
0	3373	3421.30337136176	1
0	3374	3422.400712166229	1
0	3379	3429.953020172349	1
0	3384	3433.03261659127	1
0	3397	3445.994859635187	1
0	3398	3446.223049882665	1
0	3403	3452.502517304367	1
0	3412	3460.544606549796	1
0	3413	3463.919361418062	1
0	3414	3464.319755697782	1
0	3419	3467.48941633024	1
0	3424	3471.147143025903	1
0	3433	3481.862641528052	1
0	3434	3483.694897987215	1
0	3439	3487.046057370095	1
0	3444	3491.354394829071	1
0	3445	3494.031416584538	1
0	3462	3510.055460732597	1
0	3463	3511.011940962089	1
0	3468	3516.198166432603	1
0	3469	3519.422708888433	1
0	3470	3519.60272303718	1
0	3479	3527.256965131897	1
0	3484	3530.071091140983	1
0	3485	3534.135582946911	1
0	3490	3537.702504360915	1
0	3491	3538.573480162786	1
0	3496	3542.414746872123	1
0	3497	3543.191174799648	1
0	3502	3548.910151695242	1
0	3507	3554.151597220023	1
0	3512	3555.777451572466	1
0	3513	3559.651663469986	1
0	3518	3560.341429629633	1
0	3519	3562.311717489368	1
0	3520	3564.805179153718	1
0	3525	3565.600239237715	1
0	3538	3581.264386685448	1
0	3539	3582.135380268363	1
0	3540	3583.171306179619	1
0	3541	3583.864240286734	1
0	3554	3595.580439937197	1
0	3555	3599.905130484343	1
1	11	15	1
1	15	20	1
1	19	25	0
1	23	30	1
1	27	35	1
1	31	40	0
1	35	45	1
1	39	50	1
1	44	55	0
1	48	60	1
1	53	65	1
1	59	70	1
1	64	75	1
1	68	80	1
1	74	85	1
1	78	90	1
1	82	95	1
1	87	100	1
1	93	105	1
1	98	110	1
1	103	115	1
1	107	120	1
1	112	125	1
1	117	130	1
1	123	135	1
1	128	140	1
1	132	145	1
1	137	150	1
1	141	155	1
1	146	160	0
1	151	165	1
1	158	170	1
1	162	175	1
1	167	180	1
1	171	185	1
1	175	190	1
1	180	195	1
1	184	200	1
1	190	205	1
1	194	210	1
1	199	215	1
1	203	220	1
1	207	225	0
1	210	230	1
1	213	235	0
1	215	240	0
1	218	245	0
1	222	250	1
1	227	255	1
1	231	260	1
1	236	265	0
1	240	270	1
1	244	275	1
1	249	280	1
1	255	285	1
1	260	290	1
1	265	295	1
1	271	300	1
1	276	305	1
1	280	310	1
1	284	315	1
1	289	320	1
1	294	325	1
1	300	330	1
1	306	335	1
1	312	340	1
1	317	345	1
1	321	350	1
1	327	355	1
1	334	360	1
1	340	365	1
1	346	370	1
1	352	375	1
1	357	380	1
1	362	385	1
1	366	390	1
1	370	395	1
1	375	400	1
1	379	405	1
1	384	410	1
1	389	415	1
1	395	420	1
1	400	425	1
1	405	430	1
1	409	435	1
1	414	440	1
1	421	445	1
1	425	450	1
1	429	455	1
1	433	460	1
1	438	465	1
1	443	470	1
1	448	475	1
1	455	480	1
1	461	485	1
1	466	490	1
1	471	495	1
1	477	500	1
1	484	505	1
1	489	510	1
1	494	515	1
1	498	520	1
1	502	525	1
1	506	530	1
1	510	535	1
1	515	540	1
1	519	545	1
1	523	550	1
1	529	555	1
1	535	560	1
1	541	565	1
1	545	570	1
1	549	575	1
1	553	580	1
1	557	585	1
1	561	590	1
1	566	595	1
1	571	600	1
1	578	605	1
1	583	610	1
1	589	615	1
1	595	620	1
1	601	625	1
1	606	630	1
1	613	635	1
1	617	640	1
1	623	645	1
1	627	650	1
1	631	655	1
1	636	660	1
1	641	665	1
1	646	670	1
1	653	675	1
1	658	680	1
1	662	685	1
1	667	690	1
1	673	695	1
1	677	700	1
1	681	705	1
1	685	710	1
1	690	715	1
1	694	720	1
1	698	725	1
1	702	730	1
1	707	735	1
1	711	740	1
1	716	745	1
1	722	750	1
1	726	755	1
1	730	760	1
1	734	765	1
1	740	770	1
1	745	775	1
1	750	780	1
1	757	785	1
1	763	790	1
1	767	795	1
1	771	800	1
1	775	805	1
1	782	810	1
1	788	815	1
1	793	820	1
1	799	825	1
1	803	830	1
1	808	835	1
1	813	840	1
1	817	845	1
1	823	850	1
1	828	855	1
1	833	860	1
1	839	865	1
1	843	870	1
1	848	875	1
1	854	880	1
1	859	885	1
1	863	890	1
1	867	895	1
1	873	900	1
1	877	905	1
1	882	910	1
1	888	915	1
1	892	920	1
1	896	925	1
1	902	930	1
1	908	935	1
1	913	940	1
1	917	945	1
1	923	950	1
1	928	955	1
1	933	960	1
1	937	965	1
1	944	970	1
1	950	975	1
1	955	980	1
1	962	985	1
1	966	990	1
1	974	995	1
1	978	1000	1
1	984	1005	1
1	989	1010	1
1	994	1015	1
1	999	1020	1
1	1004	1025	1
1	1008	1030	1
1	1012	1035	1
1	1018	1040	1
1	1023	1045	1
1	1028	1050	1
1	1033	1055	1
1	1039	1060	1
1	1043	1065	1
1	1047	1070	1
1	1052	1075	1
1	1057	1080	1
1	1063	1085	1
1	1067	1090	1
1	1072	1095	1
1	1076	1100	1
1	1080	1105	1
1	1085	1110	1
1	1090	1115	1
1	1096	1120	1
1	1100	1125	1
1	1105	1130	1
1	1109	1135	1
1	1113	1140	1
1	1117	1145	1
1	1122	1150	1
1	1128	1155	1
1	1133	1160	1
1	1138	1165	1
1	1142	1170	1
1	1148	1175	1
1	1153	1180	1
1	1158	1185	1
1	1162	1190	1
1	1167	1195	1
1	1173	1200	1
1	1178	1205	1
1	1182	1210	1
1	1187	1215	1
1	1191	1220	1
1	1195	1225	1
1	1200	1230	1
1	1205	1235	1
1	1210	1240	1
1	1214	1245	1
1	1219	1250	1
1	1225	1255	1
1	1230	1260	1
1	1234	1265	1
1	1238	1270	1
1	1242	1275	0
1	1246	1280	1
1	1252	1285	1
1	1257	1290	1
1	1262	1295	1
1	1269	1300	1
1	1275	1305	1
1	1280	1310	1
1	1284	1315	1
1	1291	1320	1
1	1296	1325	1
1	1301	1330	1
1	1306	1335	1
1	1311	1340	1
1	1315	1345	1
1	1324	1350	1
1	1329	1355	1
1	1334	1360	1
1	1340	1365	1
1	1346	1370	1
1	1351	1375	1
1	1355	1380	1
1	1359	1385	1
1	1363	1390	1
1	1368	1395	1
1	1374	1400	1
1	1380	1405	1
1	1384	1410	1
1	1389	1415	1
1	1396	1420	1
1	1401	1425	1
1	1405	1430	1
1	1409	1435	1
1	1413	1440	1
1	1418	1445	1
1	1422	1450	1
1	1428	1455	1
1	1432	1460	1
1	1437	1465	1
1	1442	1470	1
1	1447	1475	1
1	1454	1480	1
1	1458	1485	1
1	1463	1490	1
1	1468	1495	1
1	1473	1500	1
1	1478	1505	1
1	1482	1510	1
1	1486	1515	1
1	1490	1520	1
1	1494	1525	1
1	1498	1530	1
1	1503	1535	1
1	1507	1540	1
1	1513	1545	1
1	1517	1550	1
1	1521	1555	1
1	1526	1560	1
1	1530	1565	1
1	1536	1570	0
1	1540	1575	1
1	1547	1580	1
1	1552	1585	1
1	1556	1590	1
1	1561	1595	1
1	1565	1600	1
1	1570	1605	1
1	1574	1610	1
1	1580	1615	1
1	1586	1620	1
1	1593	1625	1
1	1597	1630	1
1	1601	1635	1
1	1605	1640	1
1	1610	1645	1
1	1615	1650	1
1	1621	1655	1
1	1626	1660	1
1	1632	1665	1
1	1636	1670	1
1	1641	1675	1
1	1646	1680	1
1	1650	1685	1
1	1654	1690	1
1	1659	1695	1
1	1664	1700	1
1	1669	1705	1
1	1675	1710	1
1	1680	1715	1
1	1685	1720	1
1	1689	1725	1
1	1694	1730	1
1	1698	1735	1
1	1703	1740	1
1	1709	1745	1
1	1714	1750	1
1	1721	1755	1
1	1730	1760	1
1	1734	1765	1
1	1740	1770	1
1	1745	1775	1
1	1749	1780	1
1	1755	1785	1
1	1759	1790	1
1	1763	1795	1
1	1768	1800	1
1	1772	1805	1
1	1776	1810	1
1	1781	1815	1
1	1786	1820	1
1	1791	1825	1
1	1797	1830	1
1	1802	1835	1
1	1808	1840	1
1	1814	1845	1
1	1819	1850	1
1	1824	1855	1
1	1829	1860	1
1	1833	1865	1
1	1837	1870	1
1	1841	1875	1
1	1845	1880	1
1	1850	1885	1
1	1854	1890	1
1	1859	1895	1
1	1865	1900	1
1	1869	1905	1
1	1875	1910	1
1	1879	1915	1
1	1884	1920	1
1	1889	1925	1
1	1893	1930	1
1	1898	1935	1
1	1903	1940	1
1	1907	1945	1
1	1910	1950	0
1	1913	1955	0
1	1918	1960	1
1	1925	1965	1
1	1932	1970	1
1	1936	1975	1
1	1940	1980	1
1	1945	1985	1
1	1950	1990	1
1	1955	1995	1
1	1960	2000	1
1	1965	2005	1
1	1969	2010	1
1	1973	2015	1
1	1979	2020	1
1	1984	2025	1
1	1992	2030	1
1	1998	2035	1
1	2003	2040	1
1	2007	2045	1
1	2012	2050	1
1	2017	2055	1
1	2021	2060	1
1	2025	2065	1
1	2029	2070	1
1	2035	2075	1
1	2041	2080	1
1	2047	2085	1
1	2051	2090	1
1	2057	2095	1
1	2062	2100	1
1	2066	2105	1
1	2072	2110	1
1	2077	2115	1
1	2082	2120	1
1	2087	2125	1
1	2092	2130	1
1	2096	2135	1
1	2101	2140	1
1	2106	2145	1
1	2110	2150	1
1	2114	2155	1
1	2118	2160	1
1	2122	2165	1
1	2128	2170	1
1	2134	2175	1
1	2139	2180	1
1	2143	2185	1
1	2147	2190	1
1	2155	2195	1
1	2160	2200	1
1	2165	2205	1
1	2169	2210	1
1	2175	2215	1
1	2179	2220	1
1	2183	2225	1
1	2189	2230	1
1	2194	2235	1
1	2199	2240	1
1	2204	2245	1
1	2209	2250	1
1	2214	2255	1
1	2220	2260	1
1	2224	2265	1
1	2229	2270	1
1	2236	2275	1
1	2240	2280	1
1	2245	2285	1
1	2249	2290	1
1	2255	2295	1
1	2259	2300	1
1	2264	2305	1
1	2268	2310	1
1	2272	2315	1
1	2278	2320	1
1	2283	2325	1
1	2289	2330	1
1	2293	2335	1
1	2298	2340	1
1	2302	2345	1
1	2306	2350	1
1	2311	2355	0
1	2315	2360	1
1	2319	2365	1
1	2324	2370	1
1	2331	2375	1
1	2335	2380	1
1	2339	2385	1
1	2343	2390	1
1	2348	2395	0
1	2353	2400	1
1	2359	2405	1
1	2365	2410	1
1	2370	2415	1
1	2375	2420	1
1	2380	2425	1
1	2388	2430	1
1	2393	2435	1
1	2397	2440	1
1	2402	2445	1
1	2406	2450	1
1	2411	2455	1
1	2417	2460	1
1	2422	2465	1
1	2427	2470	1
1	2434	2475	1
1	2439	2480	1
1	2444	2485	1
1	2450	2490	1
1	2455	2495	1
1	2459	2500	1
1	2465	2505	1
1	2472	2510	1
1	2479	2515	1
1	2484	2520	1
1	2488	2525	1
1	2492	2530	1
1	2498	2535	1
1	2502	2540	1
1	2507	2545	1
1	2512	2550	1
1	2517	2555	1
1	2522	2560	1
1	2526	2565	1
1	2533	2570	1
1	2537	2575	1
1	2543	2580	1
1	2547	2585	1
1	2552	2590	1
1	2558	2595	1
1	2562	2600	1
1	2566	2605	1
1	2572	2610	1
1	2579	2615	1
1	2587	2620	1
1	2592	2625	1
1	2596	2630	1
1	2600	2635	1
1	2606	2640	1
1	2611	2645	1
1	2615	2650	1
1	2620	2655	1
1	2625	2660	1
1	2629	2665	1
1	2633	2670	1
1	2637	2675	1
1	2641	2680	1
1	2647	2685	1
1	2652	2690	1
1	2659	2695	1
1	2664	2700	1
1	2670	2705	1
1	2674	2710	1
1	2678	2715	1
1	2682	2720	1
1	2687	2725	1
1	2691	2730	1
1	2696	2735	1
1	2700	2740	1
1	2705	2745	1
1	2712	2750	1
1	2716	2755	1
1	2720	2760	1
1	2724	2765	1
1	2730	2770	1
1	2735	2775	1
1	2739	2780	1
1	2744	2785	1
1	2748	2790	1
1	2752	2795	1
1	2758	2800	1
1	2762	2805	1
1	2766	2810	1
1	2771	2815	1
1	2776	2820	1
1	2780	2825	1
1	2785	2830	1
1	2790	2835	1
1	2795	2840	1
1	2800	2845	1
1	2804	2850	1
1	2809	2855	1
1	2815	2860	1
1	2819	2865	1
1	2824	2870	1
1	2828	2875	1
1	2834	2880	1
1	2839	2885	1
1	2843	2890	1
1	2849	2895	1
1	2853	2900	1
1	2857	2905	1
1	2862	2910	1
1	2867	2915	1
1	2871	2920	1
1	2877	2925	1
1	2882	2930	1
1	2886	2935	1
1	2890	2940	1
1	2893	2945	0
1	2896	2950	0
1	2899	2955	1
1	2902	2960	0
1	2904	2965	0
1	2907	2970	0
1	2911	2975	1
1	2915	2980	1
1	2921	2985	0
1	2925	2990	1
1	2931	2995	1
1	2938	3000	1
1	2942	3005	1
1	2948	3010	1
1	2954	3015	1
1	2961	3020	1
1	2965	3025	1
1	2969	3030	1
1	2973	3035	1
1	2979	3040	1
1	2984	3045	1
1	2988	3050	1
1	2993	3055	1
1	2998	3060	1
1	3002	3065	1
1	3006	3070	1
1	3011	3075	1
1	3016	3080	1
1	3020	3085	1
1	3024	3090	1
1	3029	3095	1
1	3034	3100	1
1	3038	3105	1
1	3042	3110	1
1	3047	3115	0
1	3050	3120	1
1	3056	3125	1
1	3063	3130	1
1	3069	3135	1
1	3073	3140	1
1	3079	3145	1
1	3083	3150	1
1	3088	3155	1
1	3095	3160	1
1	3099	3165	1
1	3103	3170	1
1	3108	3175	1
1	3115	3180	1
1	3120	3185	1
1	3124	3190	1
1	3131	3195	1
1	3135	3200	1
1	3141	3205	1
1	3147	3210	1
1	3152	3215	1
1	3157	3220	1
1	3161	3225	1
1	3167	3230	1
1	3173	3235	1
1	3178	3240	1
1	3183	3245	1
1	3187	3250	1
1	3192	3255	1
1	3196	3260	1
1	3201	3265	1
1	3206	3270	1
1	3213	3275	1
1	3219	3280	1
1	3226	3285	1
1	3232	3290	1
1	3238	3295	1
1	3243	3300	1
1	3248	3305	1
1	3254	3310	1
1	3259	3315	1
1	3263	3320	1
1	3268	3325	1
1	3274	3330	1
1	3279	3335	1
1	3283	3340	1
1	3290	3345	1
1	3294	3350	1
1	3301	3355	1
1	3306	3360	1
1	3311	3365	1
1	3316	3370	1
1	3321	3375	1
1	3325	3380	1
1	3330	3385	1
1	3334	3390	1
1	3339	3395	1
1	3346	3400	1
1	3352	3405	1
1	3359	3410	1
1	3363	3415	1
1	3368	3420	1
1	3375	3425	1
1	3380	3430	1
1	3385	3435	1
1	3389	3440	1
1	3393	3445	1
1	3399	3450	1
1	3404	3455	1
1	3408	3460	1
1	3415	3465	1
1	3420	3470	1
1	3425	3475	1
1	3429	3480	1
1	3435	3485	1
1	3440	3490	1
1	3446	3495	1
1	3450	3500	1
1	3454	3505	1
1	3458	3510	1
1	3464	3515	1
1	3471	3520	1
1	3475	3525	1
1	3480	3530	1
1	3486	3535	1
1	3492	3540	1
1	3498	3545	1
1	3503	3550	1
1	3508	3555	1
1	3514	3560	1
1	3521	3565	1
1	3526	3570	1
1	3530	3575	1
1	3534	3580	1
1	3542	3585	1
1	3546	3590	1
1	3550	3595	1
1	3556	3600	1
2	13	15	1
2	17	20	1
2	25	30	1
2	29	35	1
2	37	45	1
2	41	50	1
2	50	60	1
2	55	65	1
2	61	70	1
2	66	75	1
2	70	80	1
2	76	85	1
2	80	90	1
2	84	95	1
2	89	100	1
2	95	105	1
2	100	110	1
2	105	115	1
2	109	120	1
2	114	125	1
2	119	130	1
2	125	135	1
2	130	140	1
2	134	145	1
2	139	150	1
2	143	155	1
2	153	165	1
2	160	170	1
2	164	175	1
2	169	180	1
2	173	185	1
2	177	190	1
2	182	195	1
2	186	200	1
2	192	205	1
2	196	210	1
2	201	215	1
2	205	220	1
2	212	230	1
2	224	250	1
2	229	255	1
2	233	260	1
2	242	270	1
2	246	275	1
2	251	280	1
2	257	285	1
2	262	290	1
2	267	295	1
2	273	300	1
2	278	305	1
2	282	310	1
2	286	315	1
2	291	320	1
2	296	325	1
2	302	330	1
2	308	335	1
2	314	340	1
2	319	345	1
2	323	350	1
2	329	355	1
2	336	360	1
2	342	365	1
2	348	370	1
2	354	375	1
2	359	380	1
2	364	385	1
2	368	390	1
2	372	395	1
2	377	400	1
2	381	405	1
2	386	410	1
2	391	415	1
2	397	420	1
2	402	425	1
2	407	430	1
2	411	435	1
2	416	440	1
2	423	445	1
2	427	450	1
2	431	455	1
2	435	460	1
2	440	465	1
2	445	470	1
2	450	475	1
2	457	480	1
2	463	485	1
2	468	490	1
2	473	495	1
2	479	500	1
2	486	505	1
2	491	510	1
2	496	515	1
2	500	520	1
2	504	525	1
2	508	530	1
2	512	535	1
2	517	540	1
2	521	545	1
2	525	550	1
2	531	555	1
2	537	560	1
2	543	565	1
2	547	570	1
2	551	575	1
2	555	580	1
2	559	585	1
2	563	590	1
2	568	595	1
2	573	600	1
2	580	605	1
2	585	610	1
2	591	615	1
2	597	620	1
2	603	625	1
2	608	630	1
2	615	635	1
2	619	640	1
2	625	645	1
2	629	650	1
2	633	655	1
2	638	660	1
2	643	665	1
2	648	670	1
2	655	675	1
2	660	680	1
2	664	685	1
2	669	690	1
2	675	695	1
2	679	700	1
2	683	705	1
2	687	710	1
2	692	715	1
2	696	720	1
2	700	725	1
2	704	730	1
2	709	735	1
2	713	740	1
2	718	745	1
2	724	750	1
2	728	755	1
2	732	760	1
2	736	765	1
2	742	770	1
2	747	775	1
2	752	780	1
2	759	785	1
2	765	790	1
2	769	795	1
2	773	800	1
2	777	805	1
2	784	810	1
2	790	815	1
2	795	820	1
2	801	825	1
2	805	830	1
2	810	835	1
2	815	840	1
2	819	845	1
2	825	850	1
2	830	855	1
2	835	860	1
2	841	865	1
2	845	870	1
2	850	875	1
2	856	880	1
2	861	885	1
2	865	890	1
2	869	895	1
2	875	900	1
2	879	905	1
2	884	910	1
2	890	915	1
2	894	920	1
2	898	925	1
2	904	930	1
2	910	935	1
2	915	940	1
2	919	945	1
2	925	950	1
2	930	955	1
2	935	960	1
2	939	965	1
2	946	970	1
2	952	975	1
2	957	980	1
2	964	985	1
2	968	990	1
2	976	995	1
2	980	1000	1
2	986	1005	1
2	991	1010	1
2	996	1015	1
2	1001	1020	1
2	1006	1025	1
2	1010	1030	1
2	1014	1035	1
2	1020	1040	1
2	1025	1045	1
2	1030	1050	1
2	1035	1055	1
2	1041	1060	1
2	1045	1065	1
2	1049	1070	1
2	1054	1075	1
2	1059	1080	1
2	1065	1085	1
2	1069	1090	1
2	1074	1095	1
2	1078	1100	1
2	1082	1105	1
2	1087	1110	1
2	1092	1115	1
2	1098	1120	1
2	1102	1125	1
2	1107	1130	1
2	1111	1135	1
2	1115	1140	1
2	1119	1145	1
2	1124	1150	1
2	1130	1155	1
2	1135	1160	1
2	1140	1165	1
2	1144	1170	1
2	1150	1175	1
2	1155	1180	1
2	1160	1185	1
2	1164	1190	1
2	1169	1195	1
2	1175	1200	1
2	1180	1205	1
2	1184	1210	1
2	1189	1215	1
2	1193	1220	1
2	1197	1225	1
2	1202	1230	1
2	1207	1235	1
2	1212	1240	1
2	1216	1245	1
2	1221	1250	1
2	1227	1255	1
2	1232	1260	1
2	1236	1265	1
2	1240	1270	1
2	1248	1280	1
2	1254	1285	1
2	1259	1290	1
2	1264	1295	1
2	1271	1300	1
2	1277	1305	1
2	1282	1310	1
2	1286	1315	1
2	1293	1320	1
2	1298	1325	1
2	1303	1330	1
2	1308	1335	1
2	1313	1340	1
2	1317	1345	1
2	1326	1350	1
2	1331	1355	1
2	1336	1360	1
2	1342	1365	1
2	1348	1370	1
2	1353	1375	1
2	1357	1380	1
2	1361	1385	1
2	1365	1390	1
2	1370	1395	1
2	1376	1400	1
2	1382	1405	1
2	1386	1410	1
2	1391	1415	1
2	1398	1420	1
2	1403	1425	1
2	1407	1430	1
2	1411	1435	1
2	1415	1440	1
2	1420	1445	1
2	1424	1450	1
2	1430	1455	1
2	1434	1460	1
2	1439	1465	1
2	1444	1470	1
2	1449	1475	1
2	1456	1480	1
2	1460	1485	1
2	1465	1490	1
2	1470	1495	1
2	1475	1500	1
2	1480	1505	1
2	1484	1510	1
2	1488	1515	1
2	1492	1520	1
2	1496	1525	1
2	1500	1530	1
2	1505	1535	1
2	1509	1540	1
2	1515	1545	1
2	1519	1550	1
2	1523	1555	1
2	1528	1560	1
2	1532	1565	1
2	1542	1575	1
2	1549	1580	1
2	1554	1585	1
2	1558	1590	1
2	1563	1595	1
2	1567	1600	1
2	1572	1605	1
2	1576	1610	1
2	1582	1615	1
2	1588	1620	1
2	1595	1625	1
2	1599	1630	1
2	1603	1635	1
2	1607	1640	1
2	1612	1645	1
2	1617	1650	1
2	1623	1655	1
2	1628	1660	1
2	1634	1665	1
2	1638	1670	1
2	1643	1675	1
2	1648	1680	1
2	1652	1685	1
2	1656	1690	1
2	1661	1695	1
2	1666	1700	1
2	1671	1705	1
2	1677	1710	1
2	1682	1715	1
2	1687	1720	1
2	1691	1725	1
2	1696	1730	1
2	1700	1735	1
2	1705	1740	1
2	1711	1745	1
2	1716	1750	1
2	1723	1755	1
2	1732	1760	1
2	1736	1765	1
2	1742	1770	1
2	1747	1775	1
2	1751	1780	1
2	1757	1785	1
2	1761	1790	1
2	1765	1795	1
2	1770	1800	1
2	1774	1805	1
2	1778	1810	1
2	1783	1815	1
2	1788	1820	1
2	1793	1825	1
2	1799	1830	1
2	1804	1835	1
2	1810	1840	1
2	1816	1845	1
2	1821	1850	1
2	1826	1855	1
2	1831	1860	1
2	1835	1865	1
2	1839	1870	1
2	1843	1875	1
2	1847	1880	1
2	1852	1885	1
2	1856	1890	1
2	1861	1895	1
2	1867	1900	1
2	1871	1905	1
2	1877	1910	1
2	1881	1915	1
2	1886	1920	1
2	1891	1925	1
2	1895	1930	1
2	1900	1935	1
2	1905	1940	1
2	1909	1945	1
2	1920	1960	1
2	1927	1965	1
2	1934	1970	1
2	1938	1975	1
2	1942	1980	1
2	1947	1985	1
2	1952	1990	1
2	1957	1995	1
2	1962	2000	1
2	1967	2005	1
2	1971	2010	1
2	1975	2015	1
2	1981	2020	1
2	1986	2025	1
2	1994	2030	1
2	2000	2035	1
2	2005	2040	1
2	2009	2045	1
2	2014	2050	1
2	2019	2055	1
2	2023	2060	1
2	2027	2065	1
2	2031	2070	1
2	2037	2075	1
2	2043	2080	1
2	2049	2085	1
2	2053	2090	1
2	2059	2095	1
2	2064	2100	1
2	2068	2105	1
2	2074	2110	1
2	2079	2115	1
2	2084	2120	1
2	2089	2125	1
2	2094	2130	1
2	2098	2135	1
2	2103	2140	1
2	2108	2145	1
2	2112	2150	1
2	2116	2155	1
2	2120	2160	1
2	2124	2165	1
2	2130	2170	1
2	2136	2175	1
2	2141	2180	1
2	2145	2185	1
2	2149	2190	1
2	2157	2195	1
2	2162	2200	1
2	2167	2205	1
2	2171	2210	1
2	2177	2215	1
2	2181	2220	1
2	2185	2225	1
2	2191	2230	1
2	2196	2235	1
2	2201	2240	1
2	2206	2245	1
2	2211	2250	1
2	2216	2255	1
2	2222	2260	1
2	2226	2265	1
2	2231	2270	1
2	2238	2275	1
2	2242	2280	1
2	2247	2285	1
2	2251	2290	1
2	2257	2295	1
2	2261	2300	1
2	2266	2305	1
2	2270	2310	1
2	2274	2315	1
2	2280	2320	1
2	2285	2325	1
2	2291	2330	1
2	2295	2335	1
2	2300	2340	1
2	2304	2345	1
2	2308	2350	1
2	2317	2360	1
2	2321	2365	1
2	2326	2370	1
2	2333	2375	1
2	2337	2380	1
2	2341	2385	1
2	2345	2390	1
2	2355	2400	1
2	2361	2405	1
2	2367	2410	1
2	2372	2415	1
2	2377	2420	1
2	2382	2425	1
2	2390	2430	1
2	2395	2435	1
2	2399	2440	1
2	2404	2445	1
2	2408	2450	1
2	2413	2455	1
2	2419	2460	1
2	2424	2465	1
2	2429	2470	1
2	2436	2475	1
2	2441	2480	1
2	2446	2485	1
2	2452	2490	1
2	2457	2495	1
2	2461	2500	1
2	2467	2505	1
2	2474	2510	1
2	2481	2515	1
2	2486	2520	1
2	2490	2525	1
2	2494	2530	1
2	2500	2535	1
2	2504	2540	1
2	2509	2545	1
2	2514	2550	1
2	2519	2555	1
2	2524	2560	1
2	2528	2565	1
2	2535	2570	1
2	2539	2575	1
2	2545	2580	1
2	2549	2585	1
2	2554	2590	1
2	2560	2595	1
2	2564	2600	1
2	2568	2605	1
2	2574	2610	1
2	2581	2615	1
2	2589	2620	1
2	2594	2625	1
2	2598	2630	1
2	2602	2635	1
2	2608	2640	1
2	2613	2645	1
2	2617	2650	1
2	2622	2655	1
2	2627	2660	1
2	2631	2665	1
2	2635	2670	1
2	2639	2675	1
2	2643	2680	1
2	2649	2685	1
2	2654	2690	1
2	2661	2695	1
2	2666	2700	1
2	2672	2705	1
2	2676	2710	1
2	2680	2715	1
2	2684	2720	1
2	2689	2725	1
2	2693	2730	1
2	2698	2735	1
2	2702	2740	1
2	2707	2745	1
2	2714	2750	1
2	2718	2755	1
2	2722	2760	1
2	2726	2765	1
2	2732	2770	1
2	2737	2775	1
2	2741	2780	1
2	2746	2785	1
2	2750	2790	1
2	2754	2795	1
2	2760	2800	1
2	2764	2805	1
2	2768	2810	1
2	2773	2815	1
2	2778	2820	1
2	2782	2825	1
2	2787	2830	1
2	2792	2835	1
2	2797	2840	1
2	2802	2845	1
2	2806	2850	1
2	2811	2855	1
2	2817	2860	1
2	2821	2865	1
2	2826	2870	1
2	2830	2875	1
2	2836	2880	1
2	2841	2885	1
2	2845	2890	1
2	2851	2895	1
2	2855	2900	1
2	2859	2905	1
2	2864	2910	1
2	2869	2915	1
2	2873	2920	1
2	2879	2925	1
2	2884	2930	1
2	2888	2935	1
2	2892	2940	1
2	2901	2955	1
2	2913	2975	1
2	2917	2980	1
2	2927	2990	1
2	2933	2995	1
2	2940	3000	1
2	2944	3005	1
2	2950	3010	1
2	2956	3015	1
2	2963	3020	1
2	2967	3025	1
2	2971	3030	1
2	2975	3035	1
2	2981	3040	1
2	2986	3045	1
2	2990	3050	1
2	2995	3055	1
2	3000	3060	1
2	3004	3065	1
2	3008	3070	1
2	3013	3075	1
2	3018	3080	1
2	3022	3085	1
2	3026	3090	1
2	3031	3095	1
2	3036	3100	1
2	3040	3105	1
2	3044	3110	1
2	3052	3120	1
2	3058	3125	1
2	3065	3130	1
2	3071	3135	1
2	3075	3140	1
2	3081	3145	1
2	3085	3150	1
2	3090	3155	1
2	3097	3160	1
2	3101	3165	1
2	3105	3170	1
2	3110	3175	1
2	3117	3180	1
2	3122	3185	1
2	3126	3190	1
2	3133	3195	1
2	3137	3200	1
2	3143	3205	1
2	3149	3210	1
2	3154	3215	1
2	3159	3220	1
2	3163	3225	1
2	3169	3230	1
2	3175	3235	1
2	3180	3240	1
2	3185	3245	1
2	3189	3250	1
2	3194	3255	1
2	3198	3260	1
2	3203	3265	1
2	3208	3270	1
2	3215	3275	1
2	3221	3280	1
2	3228	3285	1
2	3234	3290	1
2	3240	3295	1
2	3245	3300	1
2	3250	3305	1
2	3256	3310	1
2	3261	3315	1
2	3265	3320	1
2	3270	3325	1
2	3276	3330	1
2	3281	3335	1
2	3285	3340	1
2	3292	3345	1
2	3296	3350	1
2	3303	3355	1
2	3308	3360	1
2	3313	3365	1
2	3318	3370	1
2	3323	3375	1
2	3327	3380	1
2	3332	3385	1
2	3336	3390	1
2	3341	3395	1
2	3348	3400	1
2	3354	3405	1
2	3361	3410	1
2	3365	3415	1
2	3370	3420	1
2	3377	3425	1
2	3382	3430	1
2	3387	3435	1
2	3391	3440	1
2	3395	3445	1
2	3401	3450	1
2	3406	3455	1
2	3410	3460	1
2	3417	3465	1
2	3422	3470	1
2	3427	3475	1
2	3431	3480	1
2	3437	3485	1
2	3442	3490	1
2	3448	3495	1
2	3452	3500	1
2	3456	3505	1
2	3460	3510	1
2	3466	3515	1
2	3473	3520	1
2	3477	3525	1
2	3482	3530	1
2	3488	3535	1
2	3494	3540	1
2	3500	3545	1
2	3505	3550	1
2	3510	3555	1
2	3516	3560	1
2	3523	3565	1
2	3528	3570	1
2	3532	3575	1
2	3536	3580	1
2	3544	3585	1
2	3548	3590	1
2	3552	3595	1
2	3558	3600	1
3	13	15	6.527825534751
3	17	20	5.248171744514
3	25	30	5.950150684141
3	29	35	6.334035026787
3	37	45	6.576308347365
3	41	50	7.640302647455
3	50	60	8.245482376441
3	55	65	10.490239943089
3	61	70	10.605207811122
3	66	75	10.414411307803
3	70	80	12.988770489195
3	76	85	15.11117450478
3	80	90	18.345378809092
3	84	95	12.22775669891
3	89	100	16.935833353445
3	95	105	5.361271953804
3	100	110	8.769491249595
3	105	115	11.351480724853
3	109	120	13.104248983599
3	114	125	10.259768395484
3	119	130	6.898712393859
3	125	135	8.135341827295
3	130	140	9.865928991189
3	134	145	10.668764726688
3	139	150	13.174404681609
3	143	155	5.183134252364
3	153	165	6.141287930989
3	160	170	10.772861153664
3	164	175	13.714971172451
3	169	180	18.25916604183
3	173	185	18.03610350029
3	177	190	22.933975558295
3	182	195	25.637734872019
3	186	200	21.700296554826
3	192	205	10.949446911446
3	196	210	8.420525618259
3	201	215	12.664371349934
3	205	220	7.462800060225
3	212	230	7.258338980666
3	224	250	8.032229634957
3	229	255	9.823683771566
3	233	260	6.797485986258
3	242	270	8.727475611795
3	246	275	10.632828313661
3	251	280	11.958006207712
3	257	285	9.375326337761
3	262	290	8.69563162921
3	267	295	13.06625958202
3	273	300	11.690121070902
3	278	305	11.582961699156
3	282	310	12.221355723945
3	286	315	16.447707321445
3	291	320	17.593534029108
3	296	325	8.121431639173
3	302	330	6.014608238704
3	308	335	7.325471779924
3	314	340	11.765740976761
3	319	345	14.087912375622
3	323	350	15.879438865466
3	329	355	19.343037104703
3	336	360	23.312020694551
3	342	365	20.870746565793
3	348	370	19.194295642673
3	354	375	21.148883526758
3	359	380	24.928641073075
3	364	385	25.726967545014
3	368	390	30.000577408553
3	372	395	34.905734562548
3	377	400	37.946880509164
3	381	405	38.139975813835
3	386	410	42.329293366605
3	391	415	42.59430998073
3	397	420	46.337100320356
3	402	425	46.539360433515
3	407	430	49.096575186975
3	411	435	39.707000080587
3	416	440	33.062433209516
3	423	445	32.336738436016
3	427	450	34.348008051924
3	431	455	37.120415576668
3	435	460	37.372942659184
3	440	465	39.500280625478
3	445	470	32.868525317006
3	450	475	31.887986319721
3	457	480	36.365180190845
3	463	485	41.054603738513
3	468	490	28.55353531624
3	473	495	28.058972978485
3	479	500	27.764802321047
3	486	505	27.211815092611
3	491	510	31.274684762522
3	496	515	35.093651232108
3	500	520	37.876631089005
3	504	525	42.186487646863
3	508	530	40.241274197908
3	512	535	43.346464376495
3	517	540	43.666156577638
3	521	545	46.405646276515
3	525	550	49.440083489995
3	531	555	50.217944522357
3	537	560	55.022028740292
3	543	565	57.135407186259
3	547	570	57.106052160426
3	551	575	39.833567929546
3	555	580	28.868834719278
3	559	585	33.330659178498
3	563	590	33.041527111737
3	568	595	36.870019517859
3	573	600	36.829923290758
3	580	605	40.95035556363
3	585	610	19.149853812414
3	591	615	18.856140236943
3	597	620	19.496560968814
3	603	625	23.036158302478
3	608	630	25.360834917062
3	615	635	27.221127012106
3	619	640	29.002222004093
3	625	645	32.600836961698
3	629	650	32.716516591345
3	633	655	36.850879310614
3	638	660	39.788373161002
3	643	665	44.20359611204
3	648	670	43.587754604373
3	655	675	43.247393618625
3	660	680	46.339614401754
3	664	685	50.596053055493
3	669	690	48.06287638913
3	675	695	51.968473406594
3	679	700	42.032523947334
3	683	705	44.732454158633
3	687	710	44.301107254242
3	692	715	40.699448965659
3	696	720	45.631126073505
3	700	725	50.12040166588
3	704	730	50.244891995098
3	709	735	46.145797398676
3	713	740	45.546725569906
3	718	745	50.041551693361
3	724	750	37.173609831639
3	728	755	23.428452533717
3	732	760	17.901846029756
3	736	765	19.740163047777
3	742	770	21.177245081111
3	747	775	7.367608658591
3	752	780	12.080974026472
3	759	785	12.438581541965
3	765	790	14.43884710876
3	769	795	12.717620747998
3	773	800	17.616670107267
3	777	805	22.416788611976
3	784	810	24.502396667641
3	790	815	27.840345462822
3	795	820	13.382494848595
3	801	825	17.742211022039
3	805	830	20.51511371244
3	810	835	23.759233265533
3	815	840	25.481001843715
3	819	845	29.849058661588
3	825	850	29.014691028845
3	830	855	32.101186284536
3	835	860	26.480000299528
3	841	865	28.805578420744
3	845	870	21.286019505318
3	850	875	25.954532497907
3	856	880	29.732555257498
3	861	885	28.836607622172
3	865	890	29.672390041841
3	869	895	30.49190238199
3	875	900	25.475699769454
3	879	905	28.933625568965
3	884	910	30.377385882879
3	890	915	31.673591130644
3	894	920	24.24567934576
3	898	925	28.752427803669
3	904	930	21.050905263875
3	910	935	21.761427058504
3	915	940	26.327574646806
3	919	945	18.081295003424
3	925	950	21.454592925779
3	930	955	24.536791855286
3	935	960	29.489788101966
3	939	965	28.985558551512
3	946	970	24.748920296503
3	952	975	29.042266728699
3	957	980	28.833363457802
3	964	985	27.533694407257
3	968	990	23.327282049822
3	976	995	26.619011214691
3	980	1000	30.081422595879
3	986	1005	34.069670403043
3	991	1010	36.53366978676
3	996	1015	37.118024576964
3	1001	1020	38.094037577957
3	1006	1025	42.992475283979
3	1010	1030	47.091214024055
3	1014	1035	43.26250866199
3	1020	1040	45.953854181768
3	1025	1045	50.930321479306
3	1030	1050	55.138613948153
3	1035	1055	54.475443238291
3	1041	1060	55.260028077549
3	1045	1065	58.686419773276
3	1049	1070	57.603876506093
3	1054	1075	55.960087137342
3	1059	1080	59.258353446166
3	1065	1085	47.882637557592
3	1069	1090	50.043116790191
3	1074	1095	53.613011927651
3	1078	1100	51.557889881179
3	1082	1105	52.265925042034
3	1087	1110	54.744206009095
3	1092	1115	55.261251655166
3	1098	1120	48.942583775862
3	1102	1125	49.69647971804
3	1107	1130	49.603186067946
3	1111	1135	53.34108610349
3	1115	1140	47.233551611119
3	1119	1145	36.972143326697
3	1124	1150	36.274103509032
3	1130	1155	38.310983371771
3	1135	1160	40.329086400123
3	1140	1165	35.961787000837
3	1144	1170	21.746754084619
3	1150	1175	20.735561248386
3	1155	1180	25.117928011575
3	1160	1185	28.352827345204
3	1164	1190	26.068734552383
3	1169	1195	22.664123529653
3	1175	1200	25.01051104657
3	1180	1205	27.485417307797
3	1184	1210	26.859007223578
3	1189	1215	21.211510243238
3	1193	1220	24.774457862888
3	1197	1225	25.421778731256
3	1202	1230	28.543084519222
3	1207	1235	22.868932269306
3	1212	1240	11.04708000405
3	1216	1245	10.150165335827
3	1221	1250	10.710858283643
3	1227	1255	9.25131193964
3	1232	1260	8.862137518958
3	1236	1265	10.383140214456
3	1240	1270	11.573801357976
3	1248	1280	5.946459569685
3	1254	1285	9.636173361308
3	1259	1290	9.472188308081
3	1264	1295	11.960634316776
3	1271	1300	14.203654366105
3	1277	1305	14.381386538636
3	1282	1310	14.719372136603
3	1286	1315	16.49884859499
3	1293	1320	21.40194968825
3	1298	1325	23.226311110096
3	1303	1330	26.431675030747
3	1308	1335	25.136457444428
3	1313	1340	24.73985645115
3	1317	1345	28.041532788238
3	1326	1350	31.328534664748
3	1331	1355	33.910356231801
3	1336	1360	34.098480952946
3	1342	1365	32.183584920262
3	1348	1370	34.383779569892
3	1353	1375	28.84654154514
3	1357	1380	33.118671652901
3	1361	1385	37.575936160427
3	1365	1390	40.8048154992
3	1370	1395	45.320201726316
3	1376	1400	46.100759363362
3	1382	1405	48.915619294492
3	1386	1410	49.446973902964
3	1391	1415	50.434213974171
3	1398	1420	51.163815295956
3	1403	1425	55.992798204166
3	1407	1430	55.69775127726
3	1411	1435	43.335073880848
3	1415	1440	43.055825837549
3	1420	1445	46.120175376804
3	1424	1450	48.2971228712
3	1430	1455	52.046715396311
3	1434	1460	45.703545432849
3	1439	1465	49.942077306577
3	1444	1470	52.651212886786
3	1449	1475	57.139609812523
3	1456	1480	59.277302055381
3	1460	1485	43.588253252829
3	1465	1490	37.463679966702
3	1470	1495	40.955850400585
3	1475	1500	37.751362510951
3	1480	1505	38.90097821322
3	1484	1510	37.815880736533
3	1488	1515	39.845513244914
3	1492	1520	44.31745002677
3	1496	1525	48.793040848768
3	1500	1530	41.196630198352
3	1505	1535	44.024901918633
3	1509	1540	42.761864294075
3	1515	1545	44.594551205462
3	1519	1550	15.767598605777
3	1523	1555	11.56893468039
3	1528	1560	15.759584246829
3	1532	1565	9.008697798075
3	1542	1575	8.879153712559
3	1549	1580	13.687739148135
3	1554	1585	17.801111272409
3	1558	1590	19.251521636289
3	1563	1595	19.471689516677
3	1567	1600	23.558996507264
3	1572	1605	27.898077959191
3	1576	1610	25.348960681144
3	1582	1615	20.929316248214
3	1588	1620	15.919383770584
3	1595	1625	12.68578826395
3	1599	1630	15.035773873267
3	1603	1635	15.826369064607
3	1607	1640	20.072414013638
3	1612	1645	22.458063863196
3	1617	1650	27.289129935436
3	1623	1655	31.930753013872
3	1628	1660	16.681518819849
3	1634	1665	15.704325988438
3	1638	1670	18.367963156388
3	1643	1675	20.34646779715
3	1648	1680	22.622182156427
3	1652	1685	21.220511137365
3	1656	1690	25.96094837645
3	1661	1695	20.897084695421
3	1666	1700	23.622525471462
3	1671	1705	10.072722511943
3	1677	1710	14.988883681982
3	1682	1715	10.305997494526
3	1687	1720	13.994350948695
3	1691	1725	18.935434789103
3	1696	1730	16.696464379161
3	1700	1735	19.465200276566
3	1705	1740	10.042141516054
3	1711	1745	8.49564969594
3	1716	1750	6.564192935834
3	1723	1755	10.622718059738
3	1732	1760	13.549655346443
3	1736	1765	14.86899984651
3	1742	1770	16.506697262342
3	1747	1775	21.227346997899
3	1751	1780	24.157452384536
3	1757	1785	28.041756344032
3	1761	1790	32.052608806737
3	1765	1795	36.959131454632
3	1770	1800	41.021536698618
3	1774	1805	38.129473088088
3	1778	1810	40.016486368196
3	1783	1815	43.748957842479
3	1788	1820	38.368802540265
3	1793	1825	41.250517033481
3	1799	1830	31.827795591447
3	1804	1835	23.666701278703
3	1810	1840	23.981007690086
3	1816	1845	22.887023673369
3	1821	1850	23.347203536746
3	1826	1855	28.18541951352
3	1831	1860	25.531263382183
3	1835	1865	29.631476674424
3	1839	1870	31.165477826736
3	1843	1875	31.308067036261
3	1847	1880	36.049652507284
3	1852	1885	36.745034323881
3	1856	1890	35.740179791171
3	1861	1895	39.381839439459
3	1867	1900	19.986174999491
3	1871	1905	11.379433719926
3	1877	1910	14.824594695077
3	1881	1915	15.065446157366
3	1886	1920	14.38246368108
3	1891	1925	15.547065408218
3	1895	1930	10.561205570768
3	1900	1935	11.104312686218
3	1905	1940	9.15592736734
3	1909	1945	7.607000510532
3	1920	1960	5.917328841263
3	1927	1965	9.047896361747
3	1934	1970	10.00799609475
3	1938	1975	12.468670481317
3	1942	1980	16.274906117078
3	1947	1985	20.097283249985
3	1952	1990	23.839290184421
3	1957	1995	27.809129942006
3	1962	2000	31.574833598012
3	1967	2005	22.129455638518
3	1971	2010	22.914561761446
3	1975	2015	21.187824595276
3	1981	2020	23.179429662654
3	1986	2025	24.808206814473
3	1994	2030	12.23581341179
3	2000	2035	15.94574959209
3	2005	2040	15.240060077793
3	2009	2045	18.772521818177
3	2014	2050	23.326750368201
3	2019	2055	28.027845553624
3	2023	2060	32.737483743044
3	2027	2065	34.887995916512
3	2031	2070	36.542427298062
3	2037	2075	39.67407832609
3	2043	2080	34.030727853433
3	2049	2085	33.071437335159
3	2053	2090	19.337964266033
3	2059	2095	21.965882814368
3	2064	2100	22.158684956512
3	2068	2105	26.168846279842
3	2074	2110	27.258967675464
3	2079	2115	32.1340259089
3	2084	2120	27.492225224501
3	2089	2125	32.144136869133
3	2094	2130	30.334478247605
3	2098	2135	29.646785719902
3	2103	2140	31.390632060314
3	2108	2145	33.367725968638
3	2112	2150	32.715948239085
3	2116	2155	33.870349233603
3	2120	2160	34.200047570577
3	2124	2165	27.850847491656
3	2130	2170	26.579831141201
3	2136	2175	8.381568509332
3	2141	2180	10.211918412361
3	2145	2185	13.989463302146
3	2149	2190	15.94529873346
3	2157	2195	15.505776565388
3	2162	2200	8.661185711203
3	2167	2205	12.133161202131
3	2171	2210	16.395181037675
3	2177	2215	21.290844944624
3	2181	2220	24.989087886888
3	2185	2225	22.887170608962
3	2191	2230	17.219354171587
3	2196	2235	20.290915701361
3	2201	2240	13.551696894214
3	2206	2245	16.133504956766
3	2211	2250	15.94425457932
3	2216	2255	16.506744936901
3	2222	2260	19.543879795963
3	2226	2265	15.653163111793
3	2231	2270	16.986324745953
3	2238	2275	17.028803281467
3	2242	2280	22.028526521991
3	2247	2285	16.724420317587
3	2251	2290	19.855603848504
3	2257	2295	23.25773057414
3	2261	2300	25.4868764289
3	2266	2305	22.4882792197
3	2270	2310	16.659460815327
3	2274	2315	20.632721971649
3	2280	2320	19.937433718285
3	2285	2325	9.671510370318
3	2291	2330	11.626287306774
3	2295	2335	10.810720889647
3	2300	2340	12.508205490901
3	2304	2345	16.294613022542
3	2308	2350	13.521298333498
3	2317	2360	8.798896946382
3	2321	2365	12.4956962995
3	2326	2370	10.933156334672
3	2333	2375	5.319423064962
3	2337	2380	8.854665772529
3	2341	2385	11.972519014922
3	2345	2390	15.772901417741
3	2355	2400	9.987423710663
3	2361	2405	11.336285384468
3	2367	2410	13.145342356504
3	2372	2415	18.015353630538
3	2377	2420	16.798599740795
3	2382	2425	20.635974648871
3	2390	2430	24.801601442707
3	2395	2435	27.037409589448
3	2399	2440	25.482547748646
3	2404	2445	28.139165368761
3	2408	2450	27.943137185854
3	2413	2455	29.82899063703
3	2419	2460	33.619392413174
3	2424	2465	36.993312323293
3	2429	2470	40.961522355268
3	2436	2475	41.542594075103
3	2441	2480	38.302213209298
3	2446	2485	33.332017202913
3	2452	2490	31.458617433904
3	2457	2495	35.833454484287
3	2461	2500	35.216151986547
3	2467	2505	36.573532772875
3	2474	2510	39.952537205443
3	2481	2515	44.244327031467
3	2486	2520	48.283019827256
3	2490	2525	46.97395645982
3	2494	2530	45.878959733913
3	2500	2535	48.357560067656
3	2504	2540	50.24737547225
3	2509	2545	51.08048426902
3	2514	2550	46.904167254322
3	2519	2555	50.891873435832
3	2524	2560	54.745651809797
3	2528	2565	58.963272957875
3	2535	2570	63.061901459984
3	2539	2575	64.714198505679
3	2545	2580	69.047495389316
3	2549	2585	71.850218436852
3	2554	2590	70.448096666958
3	2560	2595	61.344916924883
3	2564	2600	66.19028546708
3	2568	2605	63.942511584942
3	2574	2610	62.07079651284
3	2581	2615	60.165981034506
3	2589	2620	64.680142642671
3	2594	2625	57.977682839384
3	2598	2630	61.751692376172
3	2602	2635	66.31614945988
3	2608	2640	64.399567129124
3	2613	2645	65.382608315788
3	2617	2650	63.804477024304
3	2622	2655	64.413401630713
3	2627	2660	69.179962912491
3	2631	2665	57.837480908376
3	2635	2670	61.664201662094
3	2639	2675	64.93660374355
3	2643	2680	68.245830169328
3	2649	2685	71.868190484136
3	2654	2690	71.213598088193
3	2661	2695	75.68516221767
3	2666	2700	80.359597893737
3	2672	2705	85.276767421629
3	2676	2710	86.221062310489
3	2680	2715	77.958269732887
3	2684	2720	82.911854610997
3	2689	2725	82.369805839927
3	2693	2730	78.419857817521
3	2698	2735	75.730714245138
3	2702	2740	59.950858767322
3	2707	2745	63.296309361441
3	2714	2750	62.217856994648
3	2718	2755	62.803454269862
3	2722	2760	66.801243294433
3	2726	2765	71.470783240966
3	2732	2770	72.879550840426
3	2737	2775	74.555512092668
3	2741	2780	75.212683435339
3	2746	2785	61.2425645199
3	2750	2790	58.497506124125
3	2754	2795	53.039723261009
3	2760	2800	53.376663984665
3	2764	2805	56.313014651031
3	2768	2810	60.080935539967
3	2773	2815	48.786330654044
3	2778	2820	50.749934210947
3	2782	2825	54.432048646771
3	2787	2830	48.877604774857
3	2792	2835	38.966601397494
3	2797	2840	40.577591387219
3	2802	2845	31.394390420342
3	2806	2850	30.108205442489
3	2811	2855	27.08091162715
3	2817	2860	28.751699193965
3	2821	2865	28.774380977132
3	2826	2870	27.609978661978
3	2830	2875	22.241171346478
3	2836	2880	23.793998657238
3	2841	2885	27.060232138294
3	2845	2890	22.753073923384
3	2851	2895	18.302565432903
3	2855	2900	22.222084349932
3	2859	2905	22.412024716982
3	2864	2910	19.990812303732
3	2869	2915	24.92418607959
3	2873	2920	11.625899425765
3	2879	2925	14.493220365583
3	2884	2930	9.579475842566
3	2888	2935	13.777805370133
3	2892	2940	11.197460721008
3	2901	2955	6.157712446636
3	2913	2975	5.148415315397
3	2917	2980	6.894428603601
3	2927	2990	9.891050118799
3	2933	2995	11.451332726494
3	2940	3000	16.431051119889
3	2944	3005	16.330115680115
3	2950	3010	19.760126189798
3	2956	3015	22.461169600919
3	2963	3020	24.81883345941
3	2967	3025	29.082708272845
3	2971	3030	31.28766992289
3	2975	3035	27.654503024179
3	2981	3040	30.886520147864
3	2986	3045	34.833853706843
3	2990	3050	37.270280493695
3	2995	3055	38.690053903727
3	3000	3060	43.047152717346
3	3004	3065	46.777095825595
3	3008	3070	32.0389294878
3	3013	3075	36.524087669204
3	3018	3080	38.91869356378
3	3022	3085	34.009241858236
3	3026	3090	34.798560344049
3	3031	3095	21.75385531913
3	3036	3100	24.648888828885
3	3040	3105	13.449073994381
3	3044	3110	10.672602192608
3	3052	3120	8.820664289538
3	3058	3125	11.170856393178
3	3065	3130	8.73370762148
3	3071	3135	11.507960924448
3	3075	3140	14.482046512736
3	3081	3145	16.932092343489
3	3085	3150	21.50919488468
3	3090	3155	24.712725359049
3	3097	3160	27.09788709077
3	3101	3165	24.634726269808
3	3105	3170	28.313373949129
3	3110	3175	20.280514937524
3	3117	3180	24.569887380561
3	3122	3185	27.602375324948
3	3126	3190	32.327838462193
3	3133	3195	22.053539567157
3	3137	3200	20.587800273178
3	3143	3205	25.517567316966
3	3149	3210	30.460101065923
3	3154	3215	31.647982644849
3	3159	3220	29.286961854881
3	3163	3225	32.470750760372
3	3169	3230	36.676084862091
3	3175	3235	30.954157539524
3	3180	3240	35.539846174931
3	3185	3245	39.09728262319
3	3189	3250	43.627909886777
3	3194	3255	42.971016048755
3	3198	3260	42.39657893922
3	3203	3265	39.081750035849
3	3208	3270	42.674129923494
3	3215	3275	44.84465721532
3	3221	3280	47.116368641483
3	3228	3285	45.142023185167
3	3234	3290	46.066931530686
3	3240	3295	42.218832414636
3	3245	3300	37.368544586674
3	3250	3305	39.986151673685
3	3256	3310	38.493923495662
3	3261	3315	42.986253075955
3	3265	3320	46.410452932376
3	3270	3325	49.930943566136
3	3276	3330	54.226104144061
3	3281	3335	54.744458118958
3	3285	3340	59.459625456624
3	3292	3345	61.223751936409
3	3296	3350	64.428945344526
3	3303	3355	66.082430984596
3	3308	3360	69.562573188452
3	3313	3365	71.495377740491
3	3318	3370	73.450055463873
3	3323	3375	74.732139504992
3	3327	3380	73.983432566243
3	3332	3385	76.066313711066
3	3336	3390	75.118832454391
3	3341	3395	70.544621166178
3	3348	3400	73.877604474301
3	3354	3405	76.036752055589
3	3361	3410	78.647162118033
3	3365	3415	74.878588892915
3	3370	3420	78.879311203312
3	3377	3425	80.319270875188
3	3382	3430	77.550543365027
3	3387	3435	82.098857144619
3	3391	3440	86.806217649886
3	3395	3445	86.411583107388
3	3401	3450	85.441516254412
3	3406	3455	89.284411394636
3	3410	3460	86.743335236501
3	3417	3465	82.347743065451
3	3422	3470	79.835679096897
3	3427	3475	79.117225993964
3	3431	3480	82.615600592536
3	3437	3485	86.633291163052
3	3442	3490	89.292758896878
3	3448	3495	93.930663346305
3	3452	3500	94.501860116156
3	3456	3505	99.453183069453
3	3460	3510	102.86026383006
3	3466	3515	96.729843882849
3	3473	3520	99.412893745149
3	3477	3525	103.69662863824
3	3482	3530	107.59928783377
3	3488	3535	105.04697982765
3	3494	3540	106.96738340873
3	3500	3545	99.005140364813
3	3505	3550	103.77695011733
3	3510	3555	102.49748269563
3	3516	3560	99.455393450204
3	3523	3565	101.08063858194
3	3528	3570	105.68024430222
3	3532	3575	107.51058366976
3	3536	3580	108.8528569741
3	3544	3585	103.13735847195
3	3548	3590	106.30510201278
3	3552	3595	107.95394262991
3	3558	3600	108.64560517093
4	13	15	0
4	17	20	0
4	25	30	0
4	29	35	0
4	37	45	0
4	41	50	0
4	50	60	0
4	55	65	0
4	61	70	0
4	66	75	0
4	70	80	0
4	76	85	0
4	80	90	0
4	84	95	0
4	89	100	0
4	95	105	0
4	100	110	0
4	105	115	0
4	109	120	0
4	114	125	0
4	119	130	0
4	125	135	0
4	130	140	0
4	134	145	0
4	139	150	0
4	143	155	0
4	153	165	0
4	160	170	0
4	164	175	0
4	169	180	0
4	173	185	0
4	177	190	1
4	182	195	1
4	186	200	1
4	192	205	0
4	196	210	0
4	201	215	0
4	205	220	0
4	212	230	0
4	224	250	0
4	229	255	0
4	233	260	0
4	242	270	0
4	246	275	0
4	251	280	0
4	257	285	0
4	262	290	0
4	267	295	0
4	273	300	0
4	278	305	0
4	282	310	0
4	286	315	0
4	291	320	0
4	296	325	0
4	302	330	0
4	308	335	0
4	314	340	0
4	319	345	0
4	323	350	0
4	329	355	0
4	336	360	1
4	342	365	1
4	348	370	0
4	354	375	1
4	359	380	1
4	364	385	1
4	368	390	1
4	372	395	1
4	377	400	1
4	381	405	1
4	386	410	1
4	391	415	1
4	397	420	1
4	402	425	1
4	407	430	1
4	411	435	1
4	416	440	1
4	423	445	1
4	427	450	1
4	431	455	1
4	435	460	1
4	440	465	1
4	445	470	1
4	450	475	1
4	457	480	1
4	463	485	1
4	468	490	1
4	473	495	1
4	479	500	1
4	486	505	1
4	491	510	1
4	496	515	1
4	500	520	1
4	504	525	1
4	508	530	1
4	512	535	1
4	517	540	1
4	521	545	1
4	525	550	1
4	531	555	1
4	537	560	1
4	543	565	1
4	547	570	1
4	551	575	1
4	555	580	1
4	559	585	1
4	563	590	1
4	568	595	1
4	573	600	1
4	580	605	1
4	585	610	0
4	591	615	0
4	597	620	0
4	603	625	1
4	608	630	1
4	615	635	1
4	619	640	1
4	625	645	1
4	629	650	1
4	633	655	1
4	638	660	1
4	643	665	1
4	648	670	1
4	655	675	1
4	660	680	1
4	664	685	1
4	669	690	1
4	675	695	1
4	679	700	1
4	683	705	1
4	687	710	1
4	692	715	1
4	696	720	1
4	700	725	1
4	704	730	1
4	709	735	1
4	713	740	1
4	718	745	1
4	724	750	1
4	728	755	1
4	732	760	0
4	736	765	0
4	742	770	1
4	747	775	0
4	752	780	0
4	759	785	0
4	765	790	0
4	769	795	0
4	773	800	0
4	777	805	1
4	784	810	1
4	790	815	1
4	795	820	0
4	801	825	0
4	805	830	1
4	810	835	1
4	815	840	1
4	819	845	1
4	825	850	1
4	830	855	1
4	835	860	1
4	841	865	1
4	845	870	1
4	850	875	1
4	856	880	1
4	861	885	1
4	865	890	1
4	869	895	1
4	875	900	1
4	879	905	1
4	884	910	1
4	890	915	1
4	894	920	1
4	898	925	1
4	904	930	1
4	910	935	1
4	915	940	1
4	919	945	0
4	925	950	1
4	930	955	1
4	935	960	1
4	939	965	1
4	946	970	1
4	952	975	1
4	957	980	1
4	964	985	1
4	968	990	1
4	976	995	1
4	980	1000	1
4	986	1005	1
4	991	1010	1
4	996	1015	1
4	1001	1020	1
4	1006	1025	1
4	1010	1030	1
4	1014	1035	1
4	1020	1040	1
4	1025	1045	1
4	1030	1050	1
4	1035	1055	1
4	1041	1060	1
4	1045	1065	1
4	1049	1070	1
4	1054	1075	1
4	1059	1080	1
4	1065	1085	1
4	1069	1090	1
4	1074	1095	1
4	1078	1100	1
4	1082	1105	1
4	1087	1110	1
4	1092	1115	1
4	1098	1120	1
4	1102	1125	1
4	1107	1130	1
4	1111	1135	1
4	1115	1140	1
4	1119	1145	1
4	1124	1150	1
4	1130	1155	1
4	1135	1160	1
4	1140	1165	1
4	1144	1170	1
4	1150	1175	1
4	1155	1180	1
4	1160	1185	1
4	1164	1190	1
4	1169	1195	1
4	1175	1200	1
4	1180	1205	1
4	1184	1210	1
4	1189	1215	1
4	1193	1220	1
4	1197	1225	1
4	1202	1230	1
4	1207	1235	1
4	1212	1240	0
4	1216	1245	0
4	1221	1250	0
4	1227	1255	0
4	1232	1260	0
4	1236	1265	0
4	1240	1270	0
4	1248	1280	0
4	1254	1285	0
4	1259	1290	0
4	1264	1295	0
4	1271	1300	0
4	1277	1305	0
4	1282	1310	0
4	1286	1315	0
4	1293	1320	1
4	1298	1325	1
4	1303	1330	1
4	1308	1335	1
4	1313	1340	1
4	1317	1345	1
4	1326	1350	1
4	1331	1355	1
4	1336	1360	1
4	1342	1365	1
4	1348	1370	1
4	1353	1375	1
4	1357	1380	1
4	1361	1385	1
4	1365	1390	1
4	1370	1395	1
4	1376	1400	1
4	1382	1405	1
4	1386	1410	1
4	1391	1415	1
4	1398	1420	1
4	1403	1425	1
4	1407	1430	1
4	1411	1435	1
4	1415	1440	1
4	1420	1445	1
4	1424	1450	1
4	1430	1455	1
4	1434	1460	1
4	1439	1465	1
4	1444	1470	1
4	1449	1475	1
4	1456	1480	1
4	1460	1485	1
4	1465	1490	1
4	1470	1495	1
4	1475	1500	1
4	1480	1505	1
4	1484	1510	1
4	1488	1515	1
4	1492	1520	1
4	1496	1525	1
4	1500	1530	1
4	1505	1535	1
4	1509	1540	1
4	1515	1545	1
4	1519	1550	0
4	1523	1555	0
4	1528	1560	0
4	1532	1565	0
4	1542	1575	0
4	1549	1580	0
4	1554	1585	0
4	1558	1590	0
4	1563	1595	0
4	1567	1600	1
4	1572	1605	1
4	1576	1610	1
4	1582	1615	1
4	1588	1620	0
4	1595	1625	0
4	1599	1630	0
4	1603	1635	0
4	1607	1640	1
4	1612	1645	1
4	1617	1650	1
4	1623	1655	1
4	1628	1660	0
4	1634	1665	0
4	1638	1670	0
4	1643	1675	1
4	1648	1680	1
4	1652	1685	1
4	1656	1690	1
4	1661	1695	1
4	1666	1700	1
4	1671	1705	0
4	1677	1710	0
4	1682	1715	0
4	1687	1720	0
4	1691	1725	0
4	1696	1730	0
4	1700	1735	0
4	1705	1740	0
4	1711	1745	0
4	1716	1750	0
4	1723	1755	0
4	1732	1760	0
4	1736	1765	0
4	1742	1770	0
4	1747	1775	1
4	1751	1780	1
4	1757	1785	1
4	1761	1790	1
4	1765	1795	1
4	1770	1800	1
4	1774	1805	1
4	1778	1810	1
4	1783	1815	1
4	1788	1820	1
4	1793	1825	1
4	1799	1830	1
4	1804	1835	1
4	1810	1840	1
4	1816	1845	1
4	1821	1850	1
4	1826	1855	1
4	1831	1860	1
4	1835	1865	1
4	1839	1870	1
4	1843	1875	1
4	1847	1880	1
4	1852	1885	1
4	1856	1890	1
4	1861	1895	1
4	1867	1900	0
4	1871	1905	0
4	1877	1910	0
4	1881	1915	0
4	1886	1920	0
4	1891	1925	0
4	1895	1930	0
4	1900	1935	0
4	1905	1940	0
4	1909	1945	0
4	1920	1960	0
4	1927	1965	0
4	1934	1970	0
4	1938	1975	0
4	1942	1980	0
4	1947	1985	1
4	1952	1990	1
4	1957	1995	1
4	1962	2000	1
4	1967	2005	1
4	1971	2010	1
4	1975	2015	1
4	1981	2020	1
4	1986	2025	1
4	1994	2030	0
4	2000	2035	0
4	2005	2040	0
4	2009	2045	0
4	2014	2050	1
4	2019	2055	1
4	2023	2060	1
4	2027	2065	1
4	2031	2070	1
4	2037	2075	1
4	2043	2080	1
4	2049	2085	1
4	2053	2090	0
4	2059	2095	1
4	2064	2100	1
4	2068	2105	1
4	2074	2110	1
4	2079	2115	1
4	2084	2120	1
4	2089	2125	1
4	2094	2130	1
4	2098	2135	1
4	2103	2140	1
4	2108	2145	1
4	2112	2150	1
4	2116	2155	1
4	2120	2160	1
4	2124	2165	1
4	2130	2170	1
4	2136	2175	0
4	2141	2180	0
4	2145	2185	0
4	2149	2190	0
4	2157	2195	0
4	2162	2200	0
4	2167	2205	0
4	2171	2210	0
4	2177	2215	1
4	2181	2220	1
4	2185	2225	1
4	2191	2230	0
4	2196	2235	1
4	2201	2240	0
4	2206	2245	0
4	2211	2250	0
4	2216	2255	0
4	2222	2260	0
4	2226	2265	0
4	2231	2270	0
4	2238	2275	0
4	2242	2280	1
4	2247	2285	0
4	2251	2290	0
4	2257	2295	1
4	2261	2300	1
4	2266	2305	1
4	2270	2310	0
4	2274	2315	1
4	2280	2320	0
4	2285	2325	0
4	2291	2330	0
4	2295	2335	0
4	2300	2340	0
4	2304	2345	0
4	2308	2350	0
4	2317	2360	0
4	2321	2365	0
4	2326	2370	0
4	2333	2375	0
4	2337	2380	0
4	2341	2385	0
4	2345	2390	0
4	2355	2400	0
4	2361	2405	0
4	2367	2410	0
4	2372	2415	0
4	2377	2420	0
4	2382	2425	1
4	2390	2430	1
4	2395	2435	1
4	2399	2440	1
4	2404	2445	1
4	2408	2450	1
4	2413	2455	1
4	2419	2460	1
4	2424	2465	1
4	2429	2470	1
4	2436	2475	1
4	2441	2480	1
4	2446	2485	1
4	2452	2490	1
4	2457	2495	1
4	2461	2500	1
4	2467	2505	1
4	2474	2510	1
4	2481	2515	1
4	2486	2520	1
4	2490	2525	1
4	2494	2530	1
4	2500	2535	1
4	2504	2540	1
4	2509	2545	1
4	2514	2550	1
4	2519	2555	1
4	2524	2560	1
4	2528	2565	1
4	2535	2570	1
4	2539	2575	1
4	2545	2580	1
4	2549	2585	1
4	2554	2590	1
4	2560	2595	1
4	2564	2600	1
4	2568	2605	1
4	2574	2610	1
4	2581	2615	1
4	2589	2620	1
4	2594	2625	1
4	2598	2630	1
4	2602	2635	1
4	2608	2640	1
4	2613	2645	1
4	2617	2650	1
4	2622	2655	1
4	2627	2660	1
4	2631	2665	1
4	2635	2670	1
4	2639	2675	1
4	2643	2680	1
4	2649	2685	1
4	2654	2690	1
4	2661	2695	1
4	2666	2700	1
4	2672	2705	1
4	2676	2710	1
4	2680	2715	1
4	2684	2720	1
4	2689	2725	1
4	2693	2730	1
4	2698	2735	1
4	2702	2740	1
4	2707	2745	1
4	2714	2750	1
4	2718	2755	1
4	2722	2760	1
4	2726	2765	1
4	2732	2770	1
4	2737	2775	1
4	2741	2780	1
4	2746	2785	1
4	2750	2790	1
4	2754	2795	1
4	2760	2800	1
4	2764	2805	1
4	2768	2810	1
4	2773	2815	1
4	2778	2820	1
4	2782	2825	1
4	2787	2830	1
4	2792	2835	1
4	2797	2840	1
4	2802	2845	1
4	2806	2850	1
4	2811	2855	1
4	2817	2860	1
4	2821	2865	1
4	2826	2870	1
4	2830	2875	1
4	2836	2880	1
4	2841	2885	1
4	2845	2890	1
4	2851	2895	0
4	2855	2900	1
4	2859	2905	1
4	2864	2910	0
4	2869	2915	1
4	2873	2920	0
4	2879	2925	0
4	2884	2930	0
4	2888	2935	0
4	2892	2940	0
4	2901	2955	0
4	2913	2975	0
4	2917	2980	0
4	2927	2990	0
4	2933	2995	0
4	2940	3000	0
4	2944	3005	0
4	2950	3010	0
4	2956	3015	1
4	2963	3020	1
4	2967	3025	1
4	2971	3030	1
4	2975	3035	1
4	2981	3040	1
4	2986	3045	1
4	2990	3050	1
4	2995	3055	1
4	3000	3060	1
4	3004	3065	1
4	3008	3070	1
4	3013	3075	1
4	3018	3080	1
4	3022	3085	1
4	3026	3090	1
4	3031	3095	1
4	3036	3100	1
4	3040	3105	0
4	3044	3110	0
4	3052	3120	0
4	3058	3125	0
4	3065	3130	0
4	3071	3135	0
4	3075	3140	0
4	3081	3145	0
4	3085	3150	1
4	3090	3155	1
4	3097	3160	1
4	3101	3165	1
4	3105	3170	1
4	3110	3175	1
4	3117	3180	1
4	3122	3185	1
4	3126	3190	1
4	3133	3195	1
4	3137	3200	1
4	3143	3205	1
4	3149	3210	1
4	3154	3215	1
4	3159	3220	1
4	3163	3225	1
4	3169	3230	1
4	3175	3235	1
4	3180	3240	1
4	3185	3245	1
4	3189	3250	1
4	3194	3255	1
4	3198	3260	1
4	3203	3265	1
4	3208	3270	1
4	3215	3275	1
4	3221	3280	1
4	3228	3285	1
4	3234	3290	1
4	3240	3295	1
4	3245	3300	1
4	3250	3305	1
4	3256	3310	1
4	3261	3315	1
4	3265	3320	1
4	3270	3325	1
4	3276	3330	1
4	3281	3335	1
4	3285	3340	1
4	3292	3345	1
4	3296	3350	1
4	3303	3355	1
4	3308	3360	1
4	3313	3365	1
4	3318	3370	1
4	3323	3375	1
4	3327	3380	1
4	3332	3385	1
4	3336	3390	1
4	3341	3395	1
4	3348	3400	1
4	3354	3405	1
4	3361	3410	1
4	3365	3415	1
4	3370	3420	1
4	3377	3425	1
4	3382	3430	1
4	3387	3435	1
4	3391	3440	1
4	3395	3445	1
4	3401	3450	1
4	3406	3455	1
4	3410	3460	1
4	3417	3465	1
4	3422	3470	1
4	3427	3475	1
4	3431	3480	1
4	3437	3485	1
4	3442	3490	1
4	3448	3495	1
4	3452	3500	1
4	3456	3505	1
4	3460	3510	1
4	3466	3515	1
4	3473	3520	1
4	3477	3525	1
4	3482	3530	1
4	3488	3535	1
4	3494	3540	1
4	3500	3545	1
4	3505	3550	1
4	3510	3555	1
4	3516	3560	1
4	3523	3565	1
4	3528	3570	1
4	3532	3575	1
4	3536	3580	1
4	3544	3585	1
4	3548	3590	1
4	3552	3595	1
4	3558	3600	1

