version 2
run SecondVerification-0-20201214-14:18:50-8245
attr configname SecondVerification
attr datetime 20201214-14:18:50
attr experiment SecondVerification
attr inifile omnetpp.ini
attr iterationvars ""
attr iterationvarsf ""
attr measurement ""
attr network slottedNetwork
attr processid 8245
attr repetition 0
attr replication #0
attr resultdir results
attr runnumber 0
attr seedset 0
param **.numTransmitters 1
param **.numChannels 1
param **.bufferSize 5
param **.sendProbability 1
param **.expMean 4s
param **.timeSlotSize 5s
param **.thresh 20s
param **.deterministicInterarrivalTime true
param **.numTransmitters 1
param **.numChannels 1
param **.bufferSize 5
param **.sendProbability 1
param **.expMean 5s
param **.timeSlotSize 5s
param **.thresh 20s
param **.deterministicInterarrivalTime false

vector 0 slottedNetwork.transmitters[0] numPacketCreated:vector ETV
attr source numPacketCreatedSignal
vector 1 slottedNetwork.ch throughput:vector ETV
attr source throughputSignal
vector 2 slottedNetwork.receivers[0] numPacketReceived:vector ETV
attr source numPacketReceivedSignal
vector 3 slottedNetwork.receivers[0] responseTime:vector ETV
attr source responseTimeSignal
vector 4 slottedNetwork.receivers[0] threshold:vector ETV
attr source thresholdSignal
vector 5 slottedNetwork.transmitters[0] numPacketDiscarded:vector ETV
attr source numPacketDiscardedSignal
0	1	4	1
0	5	8	1
0	10	12	1
0	15	16	1
0	17	20	1
0	21	24	1
0	26	28	1
0	31	32	1
0	36	36	1
0	38	40	1
0	42	44	1
0	47	48	1
0	52	52	1
0	57	56	1
0	59	60	1
0	63	64	1
0	68	68	1
0	73	72	1
0	78	76	1
0	80	80	1
0	84	84	1
0	89	88	1
0	94	92	1
0	99	96	1
0	101	100	1
0	105	104	1
0	110	108	1
0	115	112	1
0	120	116	1
0	122	120	1
0	126	124	1
0	131	128	1
0	136	132	1
0	141	136	1
0	143	140	1
0	147	144	1
0	152	148	1
0	157	152	1
0	162	156	1
0	164	160	1
0	168	164	1
0	173	168	1
0	178	172	1
0	183	176	1
0	185	180	1
0	189	184	1
0	194	188	1
0	199	192	1
0	204	196	1
0	206	200	1
0	210	204	1
0	215	208	1
0	220	212	1
0	225	216	1
0	227	220	1
0	231	224	1
0	236	228	1
0	241	232	1
0	246	236	1
0	248	240	1
0	252	244	1
0	257	248	1
0	262	252	1
0	267	256	1
0	269	260	1
0	273	264	1
0	278	268	1
0	283	272	1
0	288	276	1
0	290	280	1
0	294	284	1
0	299	288	1
0	304	292	1
0	309	296	1
0	311	300	1
0	315	304	1
0	320	308	1
0	325	312	1
0	330	316	1
0	332	320	1
0	336	324	1
0	341	328	1
0	346	332	1
0	351	336	1
0	353	340	1
0	357	344	1
0	362	348	1
0	367	352	1
0	372	356	1
0	374	360	1
0	378	364	1
0	383	368	1
0	388	372	1
0	393	376	1
0	395	380	1
0	399	384	1
0	404	388	1
0	409	392	1
0	414	396	1
0	416	400	1
0	420	404	1
0	425	408	1
0	430	412	1
0	435	416	1
0	437	420	1
0	441	424	1
0	446	428	1
0	451	432	1
0	456	436	1
0	458	440	1
0	462	444	1
0	467	448	1
0	472	452	1
0	477	456	1
0	479	460	1
0	483	464	1
0	488	468	1
0	493	472	1
0	498	476	1
0	500	480	1
0	504	484	1
0	509	488	1
0	514	492	1
0	519	496	1
0	521	500	1
0	525	504	1
0	530	508	1
0	535	512	1
0	540	516	1
0	542	520	1
0	546	524	1
0	551	528	1
0	556	532	1
0	561	536	1
0	563	540	1
0	567	544	1
0	572	548	1
0	577	552	1
0	582	556	1
0	584	560	1
0	588	564	1
0	593	568	1
0	598	572	1
0	603	576	1
0	605	580	1
0	609	584	1
0	614	588	1
0	619	592	1
0	624	596	1
0	626	600	1
0	630	604	1
0	635	608	1
0	640	612	1
0	645	616	1
0	647	620	1
0	651	624	1
0	656	628	1
0	661	632	1
0	666	636	1
0	668	640	1
0	672	644	1
0	677	648	1
0	682	652	1
0	687	656	1
0	689	660	1
0	693	664	1
0	698	668	1
0	703	672	1
0	708	676	1
0	710	680	1
0	714	684	1
0	719	688	1
0	724	692	1
0	729	696	1
0	731	700	1
0	735	704	1
0	740	708	1
0	745	712	1
0	750	716	1
0	752	720	1
0	756	724	1
0	761	728	1
0	766	732	1
0	771	736	1
0	773	740	1
0	777	744	1
0	782	748	1
0	787	752	1
0	792	756	1
0	794	760	1
0	798	764	1
0	803	768	1
0	808	772	1
0	813	776	1
0	815	780	1
0	819	784	1
0	824	788	1
0	829	792	1
0	834	796	1
0	836	800	1
0	840	804	1
0	845	808	1
0	850	812	1
0	855	816	1
0	857	820	1
0	861	824	1
0	866	828	1
0	871	832	1
0	876	836	1
0	878	840	1
0	882	844	1
0	887	848	1
0	892	852	1
0	897	856	1
0	899	860	1
0	903	864	1
0	908	868	1
0	913	872	1
0	918	876	1
0	920	880	1
0	924	884	1
0	929	888	1
0	934	892	1
0	939	896	1
0	941	900	1
0	945	904	1
0	950	908	1
0	955	912	1
0	960	916	1
0	962	920	1
0	966	924	1
0	971	928	1
0	976	932	1
0	981	936	1
0	983	940	1
0	987	944	1
0	992	948	1
0	997	952	1
0	1002	956	1
0	1004	960	1
0	1008	964	1
0	1013	968	1
0	1018	972	1
0	1023	976	1
0	1025	980	1
0	1029	984	1
0	1034	988	1
0	1039	992	1
0	1044	996	1
0	1046	1000	1
0	1050	1004	1
0	1055	1008	1
0	1060	1012	1
0	1065	1016	1
0	1067	1020	1
0	1071	1024	1
0	1076	1028	1
0	1081	1032	1
0	1086	1036	1
0	1088	1040	1
0	1092	1044	1
0	1097	1048	1
0	1102	1052	1
0	1107	1056	1
0	1109	1060	1
0	1113	1064	1
0	1118	1068	1
0	1123	1072	1
0	1128	1076	1
0	1130	1080	1
0	1134	1084	1
0	1139	1088	1
0	1144	1092	1
0	1149	1096	1
0	1151	1100	1
0	1155	1104	1
0	1160	1108	1
0	1165	1112	1
0	1170	1116	1
0	1172	1120	1
0	1176	1124	1
0	1181	1128	1
0	1186	1132	1
0	1191	1136	1
0	1193	1140	1
0	1197	1144	1
0	1202	1148	1
0	1207	1152	1
0	1212	1156	1
0	1214	1160	1
0	1218	1164	1
0	1223	1168	1
0	1228	1172	1
0	1233	1176	1
0	1235	1180	1
0	1239	1184	1
0	1244	1188	1
0	1249	1192	1
0	1254	1196	1
0	1256	1200	1
0	1260	1204	1
0	1265	1208	1
0	1270	1212	1
0	1275	1216	1
0	1277	1220	1
0	1281	1224	1
0	1286	1228	1
0	1291	1232	1
0	1296	1236	1
0	1298	1240	1
0	1302	1244	1
0	1307	1248	1
0	1312	1252	1
0	1317	1256	1
0	1319	1260	1
0	1323	1264	1
0	1328	1268	1
0	1333	1272	1
0	1338	1276	1
0	1340	1280	1
0	1344	1284	1
0	1349	1288	1
0	1354	1292	1
0	1359	1296	1
0	1361	1300	1
0	1365	1304	1
0	1370	1308	1
0	1375	1312	1
0	1380	1316	1
0	1382	1320	1
0	1386	1324	1
0	1391	1328	1
0	1396	1332	1
0	1401	1336	1
0	1403	1340	1
0	1407	1344	1
0	1412	1348	1
0	1417	1352	1
0	1422	1356	1
0	1424	1360	1
0	1428	1364	1
0	1433	1368	1
0	1438	1372	1
0	1443	1376	1
0	1445	1380	1
0	1449	1384	1
0	1454	1388	1
0	1459	1392	1
0	1464	1396	1
0	1466	1400	1
0	1470	1404	1
0	1475	1408	1
0	1480	1412	1
0	1485	1416	1
0	1487	1420	1
0	1491	1424	1
0	1496	1428	1
0	1501	1432	1
0	1506	1436	1
0	1508	1440	1
0	1512	1444	1
0	1517	1448	1
0	1522	1452	1
0	1527	1456	1
0	1529	1460	1
0	1533	1464	1
0	1538	1468	1
0	1543	1472	1
0	1548	1476	1
0	1550	1480	1
0	1554	1484	1
0	1559	1488	1
0	1564	1492	1
0	1569	1496	1
0	1571	1500	1
0	1575	1504	1
0	1580	1508	1
0	1585	1512	1
0	1590	1516	1
0	1592	1520	1
0	1596	1524	1
0	1601	1528	1
0	1606	1532	1
0	1611	1536	1
0	1613	1540	1
0	1617	1544	1
0	1622	1548	1
0	1627	1552	1
0	1632	1556	1
0	1634	1560	1
0	1638	1564	1
0	1643	1568	1
0	1648	1572	1
0	1653	1576	1
0	1655	1580	1
0	1659	1584	1
0	1664	1588	1
0	1669	1592	1
0	1674	1596	1
0	1676	1600	1
0	1680	1604	1
0	1685	1608	1
0	1690	1612	1
0	1695	1616	1
0	1697	1620	1
0	1701	1624	1
0	1706	1628	1
0	1711	1632	1
0	1716	1636	1
0	1718	1640	1
0	1722	1644	1
0	1727	1648	1
0	1732	1652	1
0	1737	1656	1
0	1739	1660	1
0	1743	1664	1
0	1748	1668	1
0	1753	1672	1
0	1758	1676	1
0	1760	1680	1
0	1764	1684	1
0	1769	1688	1
0	1774	1692	1
0	1779	1696	1
0	1781	1700	1
0	1785	1704	1
0	1790	1708	1
0	1795	1712	1
0	1800	1716	1
0	1802	1720	1
0	1806	1724	1
0	1811	1728	1
0	1816	1732	1
0	1821	1736	1
0	1823	1740	1
0	1827	1744	1
0	1832	1748	1
0	1837	1752	1
0	1842	1756	1
0	1844	1760	1
0	1848	1764	1
0	1853	1768	1
0	1858	1772	1
0	1863	1776	1
0	1865	1780	1
0	1869	1784	1
0	1874	1788	1
0	1879	1792	1
0	1884	1796	1
0	1886	1800	1
0	1890	1804	1
0	1895	1808	1
0	1900	1812	1
0	1905	1816	1
0	1907	1820	1
0	1911	1824	1
0	1916	1828	1
0	1921	1832	1
0	1926	1836	1
0	1928	1840	1
0	1932	1844	1
0	1937	1848	1
0	1942	1852	1
0	1947	1856	1
0	1949	1860	1
0	1953	1864	1
0	1958	1868	1
0	1963	1872	1
0	1968	1876	1
0	1970	1880	1
0	1974	1884	1
0	1979	1888	1
0	1984	1892	1
0	1989	1896	1
0	1991	1900	1
0	1995	1904	1
0	2000	1908	1
0	2005	1912	1
0	2010	1916	1
0	2012	1920	1
0	2016	1924	1
0	2021	1928	1
0	2026	1932	1
0	2031	1936	1
0	2033	1940	1
0	2037	1944	1
0	2042	1948	1
0	2047	1952	1
0	2052	1956	1
0	2054	1960	1
0	2058	1964	1
0	2063	1968	1
0	2068	1972	1
0	2073	1976	1
0	2075	1980	1
0	2079	1984	1
0	2084	1988	1
0	2089	1992	1
0	2094	1996	1
0	2096	2000	1
0	2100	2004	1
0	2105	2008	1
0	2110	2012	1
0	2115	2016	1
0	2117	2020	1
0	2121	2024	1
0	2126	2028	1
0	2131	2032	1
0	2136	2036	1
0	2138	2040	1
0	2142	2044	1
0	2147	2048	1
0	2152	2052	1
0	2157	2056	1
0	2159	2060	1
0	2163	2064	1
0	2168	2068	1
0	2173	2072	1
0	2178	2076	1
0	2180	2080	1
0	2184	2084	1
0	2189	2088	1
0	2194	2092	1
0	2199	2096	1
0	2201	2100	1
0	2205	2104	1
0	2210	2108	1
0	2215	2112	1
0	2220	2116	1
0	2222	2120	1
0	2226	2124	1
0	2231	2128	1
0	2236	2132	1
0	2241	2136	1
0	2243	2140	1
0	2247	2144	1
0	2252	2148	1
0	2257	2152	1
0	2262	2156	1
0	2264	2160	1
0	2268	2164	1
0	2273	2168	1
0	2278	2172	1
0	2283	2176	1
0	2285	2180	1
0	2289	2184	1
0	2294	2188	1
0	2299	2192	1
0	2304	2196	1
0	2306	2200	1
0	2310	2204	1
0	2315	2208	1
0	2320	2212	1
0	2325	2216	1
0	2327	2220	1
0	2331	2224	1
0	2336	2228	1
0	2341	2232	1
0	2346	2236	1
0	2348	2240	1
0	2352	2244	1
0	2357	2248	1
0	2362	2252	1
0	2367	2256	1
0	2369	2260	1
0	2373	2264	1
0	2378	2268	1
0	2383	2272	1
0	2388	2276	1
0	2390	2280	1
0	2394	2284	1
0	2399	2288	1
0	2404	2292	1
0	2409	2296	1
0	2411	2300	1
0	2415	2304	1
0	2420	2308	1
0	2425	2312	1
0	2430	2316	1
0	2432	2320	1
0	2436	2324	1
0	2441	2328	1
0	2446	2332	1
0	2451	2336	1
0	2453	2340	1
0	2457	2344	1
0	2462	2348	1
0	2467	2352	1
0	2472	2356	1
0	2474	2360	1
0	2478	2364	1
0	2483	2368	1
0	2488	2372	1
0	2493	2376	1
0	2495	2380	1
0	2499	2384	1
0	2504	2388	1
0	2509	2392	1
0	2514	2396	1
0	2516	2400	1
0	2520	2404	1
0	2525	2408	1
0	2530	2412	1
0	2535	2416	1
0	2537	2420	1
0	2541	2424	1
0	2546	2428	1
0	2551	2432	1
0	2556	2436	1
0	2558	2440	1
0	2562	2444	1
0	2567	2448	1
0	2572	2452	1
0	2577	2456	1
0	2579	2460	1
0	2583	2464	1
0	2588	2468	1
0	2593	2472	1
0	2598	2476	1
0	2600	2480	1
0	2604	2484	1
0	2609	2488	1
0	2614	2492	1
0	2619	2496	1
0	2621	2500	1
0	2625	2504	1
0	2630	2508	1
0	2635	2512	1
0	2640	2516	1
0	2642	2520	1
0	2646	2524	1
0	2651	2528	1
0	2656	2532	1
0	2661	2536	1
0	2663	2540	1
0	2667	2544	1
0	2672	2548	1
0	2677	2552	1
0	2682	2556	1
0	2684	2560	1
0	2688	2564	1
0	2693	2568	1
0	2698	2572	1
0	2703	2576	1
0	2705	2580	1
0	2709	2584	1
0	2714	2588	1
0	2719	2592	1
0	2724	2596	1
0	2726	2600	1
0	2730	2604	1
0	2735	2608	1
0	2740	2612	1
0	2745	2616	1
0	2747	2620	1
0	2751	2624	1
0	2756	2628	1
0	2761	2632	1
0	2766	2636	1
0	2768	2640	1
0	2772	2644	1
0	2777	2648	1
0	2782	2652	1
0	2787	2656	1
0	2789	2660	1
0	2793	2664	1
0	2798	2668	1
0	2803	2672	1
0	2808	2676	1
0	2810	2680	1
0	2814	2684	1
0	2819	2688	1
0	2824	2692	1
0	2829	2696	1
0	2831	2700	1
0	2835	2704	1
0	2840	2708	1
0	2845	2712	1
0	2850	2716	1
0	2852	2720	1
0	2856	2724	1
0	2861	2728	1
0	2866	2732	1
0	2871	2736	1
0	2873	2740	1
0	2877	2744	1
0	2882	2748	1
0	2887	2752	1
0	2892	2756	1
0	2894	2760	1
0	2898	2764	1
0	2903	2768	1
0	2908	2772	1
0	2913	2776	1
0	2915	2780	1
0	2919	2784	1
0	2924	2788	1
0	2929	2792	1
0	2934	2796	1
0	2936	2800	1
0	2940	2804	1
0	2945	2808	1
0	2950	2812	1
0	2955	2816	1
0	2957	2820	1
0	2961	2824	1
0	2966	2828	1
0	2971	2832	1
0	2976	2836	1
0	2978	2840	1
0	2982	2844	1
0	2987	2848	1
0	2992	2852	1
0	2997	2856	1
0	2999	2860	1
0	3003	2864	1
0	3008	2868	1
0	3013	2872	1
0	3018	2876	1
0	3020	2880	1
0	3024	2884	1
0	3029	2888	1
0	3034	2892	1
0	3039	2896	1
0	3041	2900	1
0	3045	2904	1
0	3050	2908	1
0	3055	2912	1
0	3060	2916	1
0	3062	2920	1
0	3066	2924	1
0	3071	2928	1
0	3076	2932	1
0	3081	2936	1
0	3083	2940	1
0	3087	2944	1
0	3092	2948	1
0	3097	2952	1
0	3102	2956	1
0	3104	2960	1
0	3108	2964	1
0	3113	2968	1
0	3118	2972	1
0	3123	2976	1
0	3125	2980	1
0	3129	2984	1
0	3134	2988	1
0	3139	2992	1
0	3144	2996	1
0	3146	3000	1
0	3150	3004	1
0	3155	3008	1
0	3160	3012	1
0	3165	3016	1
0	3167	3020	1
0	3171	3024	1
0	3176	3028	1
0	3181	3032	1
0	3186	3036	1
0	3188	3040	1
0	3192	3044	1
0	3197	3048	1
0	3202	3052	1
0	3207	3056	1
0	3209	3060	1
0	3213	3064	1
0	3218	3068	1
0	3223	3072	1
0	3228	3076	1
0	3230	3080	1
0	3234	3084	1
0	3239	3088	1
0	3244	3092	1
0	3249	3096	1
0	3251	3100	1
0	3255	3104	1
0	3260	3108	1
0	3265	3112	1
0	3270	3116	1
0	3272	3120	1
0	3276	3124	1
0	3281	3128	1
0	3286	3132	1
0	3291	3136	1
0	3293	3140	1
0	3297	3144	1
0	3302	3148	1
0	3307	3152	1
0	3312	3156	1
0	3314	3160	1
0	3318	3164	1
0	3323	3168	1
0	3328	3172	1
0	3333	3176	1
0	3335	3180	1
0	3339	3184	1
0	3344	3188	1
0	3349	3192	1
0	3354	3196	1
0	3356	3200	1
0	3360	3204	1
0	3365	3208	1
0	3370	3212	1
0	3375	3216	1
0	3377	3220	1
0	3381	3224	1
0	3386	3228	1
0	3391	3232	1
0	3396	3236	1
0	3398	3240	1
0	3402	3244	1
0	3407	3248	1
0	3412	3252	1
0	3417	3256	1
0	3419	3260	1
0	3423	3264	1
0	3428	3268	1
0	3433	3272	1
0	3438	3276	1
0	3440	3280	1
0	3444	3284	1
0	3449	3288	1
0	3454	3292	1
0	3459	3296	1
0	3461	3300	1
0	3465	3304	1
0	3470	3308	1
0	3475	3312	1
0	3480	3316	1
0	3482	3320	1
0	3486	3324	1
0	3491	3328	1
0	3496	3332	1
0	3501	3336	1
0	3503	3340	1
0	3507	3344	1
0	3512	3348	1
0	3517	3352	1
0	3522	3356	1
0	3524	3360	1
0	3528	3364	1
0	3533	3368	1
0	3538	3372	1
0	3543	3376	1
0	3545	3380	1
0	3549	3384	1
0	3554	3388	1
0	3559	3392	1
0	3564	3396	1
0	3566	3400	1
0	3570	3404	1
0	3575	3408	1
0	3580	3412	1
0	3585	3416	1
0	3587	3420	1
0	3591	3424	1
0	3596	3428	1
0	3601	3432	1
0	3606	3436	1
0	3608	3440	1
0	3612	3444	1
0	3617	3448	1
0	3622	3452	1
0	3627	3456	1
0	3629	3460	1
0	3633	3464	1
0	3638	3468	1
0	3643	3472	1
0	3648	3476	1
0	3650	3480	1
0	3654	3484	1
0	3659	3488	1
0	3664	3492	1
0	3669	3496	1
0	3671	3500	1
0	3675	3504	1
0	3680	3508	1
0	3685	3512	1
0	3690	3516	1
0	3692	3520	1
0	3696	3524	1
0	3701	3528	1
0	3706	3532	1
0	3711	3536	1
0	3713	3540	1
0	3717	3544	1
0	3722	3548	1
0	3727	3552	1
0	3732	3556	1
0	3734	3560	1
0	3738	3564	1
0	3743	3568	1
0	3748	3572	1
0	3753	3576	1
0	3755	3580	1
0	3759	3584	1
0	3764	3588	1
0	3769	3592	1
0	3774	3596	1
0	3776	3600	1
1	2	5	0
1	6	10	1
1	11	15	1
1	16	20	1
1	22	25	1
1	27	30	1
1	32	35	1
1	37	40	1
1	43	45	1
1	48	50	1
1	53	55	1
1	58	60	1
1	64	65	1
1	69	70	1
1	74	75	1
1	79	80	1
1	85	85	1
1	90	90	1
1	95	95	1
1	100	100	1
1	106	105	1
1	111	110	1
1	116	115	1
1	121	120	1
1	127	125	1
1	132	130	1
1	137	135	1
1	142	140	1
1	148	145	1
1	153	150	1
1	158	155	1
1	163	160	1
1	169	165	1
1	174	170	1
1	179	175	1
1	184	180	1
1	190	185	1
1	195	190	1
1	200	195	1
1	205	200	1
1	211	205	1
1	216	210	1
1	221	215	1
1	226	220	1
1	232	225	1
1	237	230	1
1	242	235	1
1	247	240	1
1	253	245	1
1	258	250	1
1	263	255	1
1	268	260	1
1	274	265	1
1	279	270	1
1	284	275	1
1	289	280	1
1	295	285	1
1	300	290	1
1	305	295	1
1	310	300	1
1	316	305	1
1	321	310	1
1	326	315	1
1	331	320	1
1	337	325	1
1	342	330	1
1	347	335	1
1	352	340	1
1	358	345	1
1	363	350	1
1	368	355	1
1	373	360	1
1	379	365	1
1	384	370	1
1	389	375	1
1	394	380	1
1	400	385	1
1	405	390	1
1	410	395	1
1	415	400	1
1	421	405	1
1	426	410	1
1	431	415	1
1	436	420	1
1	442	425	1
1	447	430	1
1	452	435	1
1	457	440	1
1	463	445	1
1	468	450	1
1	473	455	1
1	478	460	1
1	484	465	1
1	489	470	1
1	494	475	1
1	499	480	1
1	505	485	1
1	510	490	1
1	515	495	1
1	520	500	1
1	526	505	1
1	531	510	1
1	536	515	1
1	541	520	1
1	547	525	1
1	552	530	1
1	557	535	1
1	562	540	1
1	568	545	1
1	573	550	1
1	578	555	1
1	583	560	1
1	589	565	1
1	594	570	1
1	599	575	1
1	604	580	1
1	610	585	1
1	615	590	1
1	620	595	1
1	625	600	1
1	631	605	1
1	636	610	1
1	641	615	1
1	646	620	1
1	652	625	1
1	657	630	1
1	662	635	1
1	667	640	1
1	673	645	1
1	678	650	1
1	683	655	1
1	688	660	1
1	694	665	1
1	699	670	1
1	704	675	1
1	709	680	1
1	715	685	1
1	720	690	1
1	725	695	1
1	730	700	1
1	736	705	1
1	741	710	1
1	746	715	1
1	751	720	1
1	757	725	1
1	762	730	1
1	767	735	1
1	772	740	1
1	778	745	1
1	783	750	1
1	788	755	1
1	793	760	1
1	799	765	1
1	804	770	1
1	809	775	1
1	814	780	1
1	820	785	1
1	825	790	1
1	830	795	1
1	835	800	1
1	841	805	1
1	846	810	1
1	851	815	1
1	856	820	1
1	862	825	1
1	867	830	1
1	872	835	1
1	877	840	1
1	883	845	1
1	888	850	1
1	893	855	1
1	898	860	1
1	904	865	1
1	909	870	1
1	914	875	1
1	919	880	1
1	925	885	1
1	930	890	1
1	935	895	1
1	940	900	1
1	946	905	1
1	951	910	1
1	956	915	1
1	961	920	1
1	967	925	1
1	972	930	1
1	977	935	1
1	982	940	1
1	988	945	1
1	993	950	1
1	998	955	1
1	1003	960	1
1	1009	965	1
1	1014	970	1
1	1019	975	1
1	1024	980	1
1	1030	985	1
1	1035	990	1
1	1040	995	1
1	1045	1000	1
1	1051	1005	1
1	1056	1010	1
1	1061	1015	1
1	1066	1020	1
1	1072	1025	1
1	1077	1030	1
1	1082	1035	1
1	1087	1040	1
1	1093	1045	1
1	1098	1050	1
1	1103	1055	1
1	1108	1060	1
1	1114	1065	1
1	1119	1070	1
1	1124	1075	1
1	1129	1080	1
1	1135	1085	1
1	1140	1090	1
1	1145	1095	1
1	1150	1100	1
1	1156	1105	1
1	1161	1110	1
1	1166	1115	1
1	1171	1120	1
1	1177	1125	1
1	1182	1130	1
1	1187	1135	1
1	1192	1140	1
1	1198	1145	1
1	1203	1150	1
1	1208	1155	1
1	1213	1160	1
1	1219	1165	1
1	1224	1170	1
1	1229	1175	1
1	1234	1180	1
1	1240	1185	1
1	1245	1190	1
1	1250	1195	1
1	1255	1200	1
1	1261	1205	1
1	1266	1210	1
1	1271	1215	1
1	1276	1220	1
1	1282	1225	1
1	1287	1230	1
1	1292	1235	1
1	1297	1240	1
1	1303	1245	1
1	1308	1250	1
1	1313	1255	1
1	1318	1260	1
1	1324	1265	1
1	1329	1270	1
1	1334	1275	1
1	1339	1280	1
1	1345	1285	1
1	1350	1290	1
1	1355	1295	1
1	1360	1300	1
1	1366	1305	1
1	1371	1310	1
1	1376	1315	1
1	1381	1320	1
1	1387	1325	1
1	1392	1330	1
1	1397	1335	1
1	1402	1340	1
1	1408	1345	1
1	1413	1350	1
1	1418	1355	1
1	1423	1360	1
1	1429	1365	1
1	1434	1370	1
1	1439	1375	1
1	1444	1380	1
1	1450	1385	1
1	1455	1390	1
1	1460	1395	1
1	1465	1400	1
1	1471	1405	1
1	1476	1410	1
1	1481	1415	1
1	1486	1420	1
1	1492	1425	1
1	1497	1430	1
1	1502	1435	1
1	1507	1440	1
1	1513	1445	1
1	1518	1450	1
1	1523	1455	1
1	1528	1460	1
1	1534	1465	1
1	1539	1470	1
1	1544	1475	1
1	1549	1480	1
1	1555	1485	1
1	1560	1490	1
1	1565	1495	1
1	1570	1500	1
1	1576	1505	1
1	1581	1510	1
1	1586	1515	1
1	1591	1520	1
1	1597	1525	1
1	1602	1530	1
1	1607	1535	1
1	1612	1540	1
1	1618	1545	1
1	1623	1550	1
1	1628	1555	1
1	1633	1560	1
1	1639	1565	1
1	1644	1570	1
1	1649	1575	1
1	1654	1580	1
1	1660	1585	1
1	1665	1590	1
1	1670	1595	1
1	1675	1600	1
1	1681	1605	1
1	1686	1610	1
1	1691	1615	1
1	1696	1620	1
1	1702	1625	1
1	1707	1630	1
1	1712	1635	1
1	1717	1640	1
1	1723	1645	1
1	1728	1650	1
1	1733	1655	1
1	1738	1660	1
1	1744	1665	1
1	1749	1670	1
1	1754	1675	1
1	1759	1680	1
1	1765	1685	1
1	1770	1690	1
1	1775	1695	1
1	1780	1700	1
1	1786	1705	1
1	1791	1710	1
1	1796	1715	1
1	1801	1720	1
1	1807	1725	1
1	1812	1730	1
1	1817	1735	1
1	1822	1740	1
1	1828	1745	1
1	1833	1750	1
1	1838	1755	1
1	1843	1760	1
1	1849	1765	1
1	1854	1770	1
1	1859	1775	1
1	1864	1780	1
1	1870	1785	1
1	1875	1790	1
1	1880	1795	1
1	1885	1800	1
1	1891	1805	1
1	1896	1810	1
1	1901	1815	1
1	1906	1820	1
1	1912	1825	1
1	1917	1830	1
1	1922	1835	1
1	1927	1840	1
1	1933	1845	1
1	1938	1850	1
1	1943	1855	1
1	1948	1860	1
1	1954	1865	1
1	1959	1870	1
1	1964	1875	1
1	1969	1880	1
1	1975	1885	1
1	1980	1890	1
1	1985	1895	1
1	1990	1900	1
1	1996	1905	1
1	2001	1910	1
1	2006	1915	1
1	2011	1920	1
1	2017	1925	1
1	2022	1930	1
1	2027	1935	1
1	2032	1940	1
1	2038	1945	1
1	2043	1950	1
1	2048	1955	1
1	2053	1960	1
1	2059	1965	1
1	2064	1970	1
1	2069	1975	1
1	2074	1980	1
1	2080	1985	1
1	2085	1990	1
1	2090	1995	1
1	2095	2000	1
1	2101	2005	1
1	2106	2010	1
1	2111	2015	1
1	2116	2020	1
1	2122	2025	1
1	2127	2030	1
1	2132	2035	1
1	2137	2040	1
1	2143	2045	1
1	2148	2050	1
1	2153	2055	1
1	2158	2060	1
1	2164	2065	1
1	2169	2070	1
1	2174	2075	1
1	2179	2080	1
1	2185	2085	1
1	2190	2090	1
1	2195	2095	1
1	2200	2100	1
1	2206	2105	1
1	2211	2110	1
1	2216	2115	1
1	2221	2120	1
1	2227	2125	1
1	2232	2130	1
1	2237	2135	1
1	2242	2140	1
1	2248	2145	1
1	2253	2150	1
1	2258	2155	1
1	2263	2160	1
1	2269	2165	1
1	2274	2170	1
1	2279	2175	1
1	2284	2180	1
1	2290	2185	1
1	2295	2190	1
1	2300	2195	1
1	2305	2200	1
1	2311	2205	1
1	2316	2210	1
1	2321	2215	1
1	2326	2220	1
1	2332	2225	1
1	2337	2230	1
1	2342	2235	1
1	2347	2240	1
1	2353	2245	1
1	2358	2250	1
1	2363	2255	1
1	2368	2260	1
1	2374	2265	1
1	2379	2270	1
1	2384	2275	1
1	2389	2280	1
1	2395	2285	1
1	2400	2290	1
1	2405	2295	1
1	2410	2300	1
1	2416	2305	1
1	2421	2310	1
1	2426	2315	1
1	2431	2320	1
1	2437	2325	1
1	2442	2330	1
1	2447	2335	1
1	2452	2340	1
1	2458	2345	1
1	2463	2350	1
1	2468	2355	1
1	2473	2360	1
1	2479	2365	1
1	2484	2370	1
1	2489	2375	1
1	2494	2380	1
1	2500	2385	1
1	2505	2390	1
1	2510	2395	1
1	2515	2400	1
1	2521	2405	1
1	2526	2410	1
1	2531	2415	1
1	2536	2420	1
1	2542	2425	1
1	2547	2430	1
1	2552	2435	1
1	2557	2440	1
1	2563	2445	1
1	2568	2450	1
1	2573	2455	1
1	2578	2460	1
1	2584	2465	1
1	2589	2470	1
1	2594	2475	1
1	2599	2480	1
1	2605	2485	1
1	2610	2490	1
1	2615	2495	1
1	2620	2500	1
1	2626	2505	1
1	2631	2510	1
1	2636	2515	1
1	2641	2520	1
1	2647	2525	1
1	2652	2530	1
1	2657	2535	1
1	2662	2540	1
1	2668	2545	1
1	2673	2550	1
1	2678	2555	1
1	2683	2560	1
1	2689	2565	1
1	2694	2570	1
1	2699	2575	1
1	2704	2580	1
1	2710	2585	1
1	2715	2590	1
1	2720	2595	1
1	2725	2600	1
1	2731	2605	1
1	2736	2610	1
1	2741	2615	1
1	2746	2620	1
1	2752	2625	1
1	2757	2630	1
1	2762	2635	1
1	2767	2640	1
1	2773	2645	1
1	2778	2650	1
1	2783	2655	1
1	2788	2660	1
1	2794	2665	1
1	2799	2670	1
1	2804	2675	1
1	2809	2680	1
1	2815	2685	1
1	2820	2690	1
1	2825	2695	1
1	2830	2700	1
1	2836	2705	1
1	2841	2710	1
1	2846	2715	1
1	2851	2720	1
1	2857	2725	1
1	2862	2730	1
1	2867	2735	1
1	2872	2740	1
1	2878	2745	1
1	2883	2750	1
1	2888	2755	1
1	2893	2760	1
1	2899	2765	1
1	2904	2770	1
1	2909	2775	1
1	2914	2780	1
1	2920	2785	1
1	2925	2790	1
1	2930	2795	1
1	2935	2800	1
1	2941	2805	1
1	2946	2810	1
1	2951	2815	1
1	2956	2820	1
1	2962	2825	1
1	2967	2830	1
1	2972	2835	1
1	2977	2840	1
1	2983	2845	1
1	2988	2850	1
1	2993	2855	1
1	2998	2860	1
1	3004	2865	1
1	3009	2870	1
1	3014	2875	1
1	3019	2880	1
1	3025	2885	1
1	3030	2890	1
1	3035	2895	1
1	3040	2900	1
1	3046	2905	1
1	3051	2910	1
1	3056	2915	1
1	3061	2920	1
1	3067	2925	1
1	3072	2930	1
1	3077	2935	1
1	3082	2940	1
1	3088	2945	1
1	3093	2950	1
1	3098	2955	1
1	3103	2960	1
1	3109	2965	1
1	3114	2970	1
1	3119	2975	1
1	3124	2980	1
1	3130	2985	1
1	3135	2990	1
1	3140	2995	1
1	3145	3000	1
1	3151	3005	1
1	3156	3010	1
1	3161	3015	1
1	3166	3020	1
1	3172	3025	1
1	3177	3030	1
1	3182	3035	1
1	3187	3040	1
1	3193	3045	1
1	3198	3050	1
1	3203	3055	1
1	3208	3060	1
1	3214	3065	1
1	3219	3070	1
1	3224	3075	1
1	3229	3080	1
1	3235	3085	1
1	3240	3090	1
1	3245	3095	1
1	3250	3100	1
1	3256	3105	1
1	3261	3110	1
1	3266	3115	1
1	3271	3120	1
1	3277	3125	1
1	3282	3130	1
1	3287	3135	1
1	3292	3140	1
1	3298	3145	1
1	3303	3150	1
1	3308	3155	1
1	3313	3160	1
1	3319	3165	1
1	3324	3170	1
1	3329	3175	1
1	3334	3180	1
1	3340	3185	1
1	3345	3190	1
1	3350	3195	1
1	3355	3200	1
1	3361	3205	1
1	3366	3210	1
1	3371	3215	1
1	3376	3220	1
1	3382	3225	1
1	3387	3230	1
1	3392	3235	1
1	3397	3240	1
1	3403	3245	1
1	3408	3250	1
1	3413	3255	1
1	3418	3260	1
1	3424	3265	1
1	3429	3270	1
1	3434	3275	1
1	3439	3280	1
1	3445	3285	1
1	3450	3290	1
1	3455	3295	1
1	3460	3300	1
1	3466	3305	1
1	3471	3310	1
1	3476	3315	1
1	3481	3320	1
1	3487	3325	1
1	3492	3330	1
1	3497	3335	1
1	3502	3340	1
1	3508	3345	1
1	3513	3350	1
1	3518	3355	1
1	3523	3360	1
1	3529	3365	1
1	3534	3370	1
1	3539	3375	1
1	3544	3380	1
1	3550	3385	1
1	3555	3390	1
1	3560	3395	1
1	3565	3400	1
1	3571	3405	1
1	3576	3410	1
1	3581	3415	1
1	3586	3420	1
1	3592	3425	1
1	3597	3430	1
1	3602	3435	1
1	3607	3440	1
1	3613	3445	1
1	3618	3450	1
1	3623	3455	1
1	3628	3460	1
1	3634	3465	1
1	3639	3470	1
1	3644	3475	1
1	3649	3480	1
1	3655	3485	1
1	3660	3490	1
1	3665	3495	1
1	3670	3500	1
1	3676	3505	1
1	3681	3510	1
1	3686	3515	1
1	3691	3520	1
1	3697	3525	1
1	3702	3530	1
1	3707	3535	1
1	3712	3540	1
1	3718	3545	1
1	3723	3550	1
1	3728	3555	1
1	3733	3560	1
1	3739	3565	1
1	3744	3570	1
1	3749	3575	1
1	3754	3580	1
1	3760	3585	1
1	3765	3590	1
1	3770	3595	1
1	3775	3600	1
2	8	10	1
2	13	15	1
2	19	20	1
2	24	25	1
2	29	30	1
2	34	35	1
2	40	40	1
2	45	45	1
2	50	50	1
2	55	55	1
2	61	60	1
2	66	65	1
2	71	70	1
2	76	75	1
2	82	80	1
2	87	85	1
2	92	90	1
2	97	95	1
2	103	100	1
2	108	105	1
2	113	110	1
2	118	115	1
2	124	120	1
2	129	125	1
2	134	130	1
2	139	135	1
2	145	140	1
2	150	145	1
2	155	150	1
2	160	155	1
2	166	160	1
2	171	165	1
2	176	170	1
2	181	175	1
2	187	180	1
2	192	185	1
2	197	190	1
2	202	195	1
2	208	200	1
2	213	205	1
2	218	210	1
2	223	215	1
2	229	220	1
2	234	225	1
2	239	230	1
2	244	235	1
2	250	240	1
2	255	245	1
2	260	250	1
2	265	255	1
2	271	260	1
2	276	265	1
2	281	270	1
2	286	275	1
2	292	280	1
2	297	285	1
2	302	290	1
2	307	295	1
2	313	300	1
2	318	305	1
2	323	310	1
2	328	315	1
2	334	320	1
2	339	325	1
2	344	330	1
2	349	335	1
2	355	340	1
2	360	345	1
2	365	350	1
2	370	355	1
2	376	360	1
2	381	365	1
2	386	370	1
2	391	375	1
2	397	380	1
2	402	385	1
2	407	390	1
2	412	395	1
2	418	400	1
2	423	405	1
2	428	410	1
2	433	415	1
2	439	420	1
2	444	425	1
2	449	430	1
2	454	435	1
2	460	440	1
2	465	445	1
2	470	450	1
2	475	455	1
2	481	460	1
2	486	465	1
2	491	470	1
2	496	475	1
2	502	480	1
2	507	485	1
2	512	490	1
2	517	495	1
2	523	500	1
2	528	505	1
2	533	510	1
2	538	515	1
2	544	520	1
2	549	525	1
2	554	530	1
2	559	535	1
2	565	540	1
2	570	545	1
2	575	550	1
2	580	555	1
2	586	560	1
2	591	565	1
2	596	570	1
2	601	575	1
2	607	580	1
2	612	585	1
2	617	590	1
2	622	595	1
2	628	600	1
2	633	605	1
2	638	610	1
2	643	615	1
2	649	620	1
2	654	625	1
2	659	630	1
2	664	635	1
2	670	640	1
2	675	645	1
2	680	650	1
2	685	655	1
2	691	660	1
2	696	665	1
2	701	670	1
2	706	675	1
2	712	680	1
2	717	685	1
2	722	690	1
2	727	695	1
2	733	700	1
2	738	705	1
2	743	710	1
2	748	715	1
2	754	720	1
2	759	725	1
2	764	730	1
2	769	735	1
2	775	740	1
2	780	745	1
2	785	750	1
2	790	755	1
2	796	760	1
2	801	765	1
2	806	770	1
2	811	775	1
2	817	780	1
2	822	785	1
2	827	790	1
2	832	795	1
2	838	800	1
2	843	805	1
2	848	810	1
2	853	815	1
2	859	820	1
2	864	825	1
2	869	830	1
2	874	835	1
2	880	840	1
2	885	845	1
2	890	850	1
2	895	855	1
2	901	860	1
2	906	865	1
2	911	870	1
2	916	875	1
2	922	880	1
2	927	885	1
2	932	890	1
2	937	895	1
2	943	900	1
2	948	905	1
2	953	910	1
2	958	915	1
2	964	920	1
2	969	925	1
2	974	930	1
2	979	935	1
2	985	940	1
2	990	945	1
2	995	950	1
2	1000	955	1
2	1006	960	1
2	1011	965	1
2	1016	970	1
2	1021	975	1
2	1027	980	1
2	1032	985	1
2	1037	990	1
2	1042	995	1
2	1048	1000	1
2	1053	1005	1
2	1058	1010	1
2	1063	1015	1
2	1069	1020	1
2	1074	1025	1
2	1079	1030	1
2	1084	1035	1
2	1090	1040	1
2	1095	1045	1
2	1100	1050	1
2	1105	1055	1
2	1111	1060	1
2	1116	1065	1
2	1121	1070	1
2	1126	1075	1
2	1132	1080	1
2	1137	1085	1
2	1142	1090	1
2	1147	1095	1
2	1153	1100	1
2	1158	1105	1
2	1163	1110	1
2	1168	1115	1
2	1174	1120	1
2	1179	1125	1
2	1184	1130	1
2	1189	1135	1
2	1195	1140	1
2	1200	1145	1
2	1205	1150	1
2	1210	1155	1
2	1216	1160	1
2	1221	1165	1
2	1226	1170	1
2	1231	1175	1
2	1237	1180	1
2	1242	1185	1
2	1247	1190	1
2	1252	1195	1
2	1258	1200	1
2	1263	1205	1
2	1268	1210	1
2	1273	1215	1
2	1279	1220	1
2	1284	1225	1
2	1289	1230	1
2	1294	1235	1
2	1300	1240	1
2	1305	1245	1
2	1310	1250	1
2	1315	1255	1
2	1321	1260	1
2	1326	1265	1
2	1331	1270	1
2	1336	1275	1
2	1342	1280	1
2	1347	1285	1
2	1352	1290	1
2	1357	1295	1
2	1363	1300	1
2	1368	1305	1
2	1373	1310	1
2	1378	1315	1
2	1384	1320	1
2	1389	1325	1
2	1394	1330	1
2	1399	1335	1
2	1405	1340	1
2	1410	1345	1
2	1415	1350	1
2	1420	1355	1
2	1426	1360	1
2	1431	1365	1
2	1436	1370	1
2	1441	1375	1
2	1447	1380	1
2	1452	1385	1
2	1457	1390	1
2	1462	1395	1
2	1468	1400	1
2	1473	1405	1
2	1478	1410	1
2	1483	1415	1
2	1489	1420	1
2	1494	1425	1
2	1499	1430	1
2	1504	1435	1
2	1510	1440	1
2	1515	1445	1
2	1520	1450	1
2	1525	1455	1
2	1531	1460	1
2	1536	1465	1
2	1541	1470	1
2	1546	1475	1
2	1552	1480	1
2	1557	1485	1
2	1562	1490	1
2	1567	1495	1
2	1573	1500	1
2	1578	1505	1
2	1583	1510	1
2	1588	1515	1
2	1594	1520	1
2	1599	1525	1
2	1604	1530	1
2	1609	1535	1
2	1615	1540	1
2	1620	1545	1
2	1625	1550	1
2	1630	1555	1
2	1636	1560	1
2	1641	1565	1
2	1646	1570	1
2	1651	1575	1
2	1657	1580	1
2	1662	1585	1
2	1667	1590	1
2	1672	1595	1
2	1678	1600	1
2	1683	1605	1
2	1688	1610	1
2	1693	1615	1
2	1699	1620	1
2	1704	1625	1
2	1709	1630	1
2	1714	1635	1
2	1720	1640	1
2	1725	1645	1
2	1730	1650	1
2	1735	1655	1
2	1741	1660	1
2	1746	1665	1
2	1751	1670	1
2	1756	1675	1
2	1762	1680	1
2	1767	1685	1
2	1772	1690	1
2	1777	1695	1
2	1783	1700	1
2	1788	1705	1
2	1793	1710	1
2	1798	1715	1
2	1804	1720	1
2	1809	1725	1
2	1814	1730	1
2	1819	1735	1
2	1825	1740	1
2	1830	1745	1
2	1835	1750	1
2	1840	1755	1
2	1846	1760	1
2	1851	1765	1
2	1856	1770	1
2	1861	1775	1
2	1867	1780	1
2	1872	1785	1
2	1877	1790	1
2	1882	1795	1
2	1888	1800	1
2	1893	1805	1
2	1898	1810	1
2	1903	1815	1
2	1909	1820	1
2	1914	1825	1
2	1919	1830	1
2	1924	1835	1
2	1930	1840	1
2	1935	1845	1
2	1940	1850	1
2	1945	1855	1
2	1951	1860	1
2	1956	1865	1
2	1961	1870	1
2	1966	1875	1
2	1972	1880	1
2	1977	1885	1
2	1982	1890	1
2	1987	1895	1
2	1993	1900	1
2	1998	1905	1
2	2003	1910	1
2	2008	1915	1
2	2014	1920	1
2	2019	1925	1
2	2024	1930	1
2	2029	1935	1
2	2035	1940	1
2	2040	1945	1
2	2045	1950	1
2	2050	1955	1
2	2056	1960	1
2	2061	1965	1
2	2066	1970	1
2	2071	1975	1
2	2077	1980	1
2	2082	1985	1
2	2087	1990	1
2	2092	1995	1
2	2098	2000	1
2	2103	2005	1
2	2108	2010	1
2	2113	2015	1
2	2119	2020	1
2	2124	2025	1
2	2129	2030	1
2	2134	2035	1
2	2140	2040	1
2	2145	2045	1
2	2150	2050	1
2	2155	2055	1
2	2161	2060	1
2	2166	2065	1
2	2171	2070	1
2	2176	2075	1
2	2182	2080	1
2	2187	2085	1
2	2192	2090	1
2	2197	2095	1
2	2203	2100	1
2	2208	2105	1
2	2213	2110	1
2	2218	2115	1
2	2224	2120	1
2	2229	2125	1
2	2234	2130	1
2	2239	2135	1
2	2245	2140	1
2	2250	2145	1
2	2255	2150	1
2	2260	2155	1
2	2266	2160	1
2	2271	2165	1
2	2276	2170	1
2	2281	2175	1
2	2287	2180	1
2	2292	2185	1
2	2297	2190	1
2	2302	2195	1
2	2308	2200	1
2	2313	2205	1
2	2318	2210	1
2	2323	2215	1
2	2329	2220	1
2	2334	2225	1
2	2339	2230	1
2	2344	2235	1
2	2350	2240	1
2	2355	2245	1
2	2360	2250	1
2	2365	2255	1
2	2371	2260	1
2	2376	2265	1
2	2381	2270	1
2	2386	2275	1
2	2392	2280	1
2	2397	2285	1
2	2402	2290	1
2	2407	2295	1
2	2413	2300	1
2	2418	2305	1
2	2423	2310	1
2	2428	2315	1
2	2434	2320	1
2	2439	2325	1
2	2444	2330	1
2	2449	2335	1
2	2455	2340	1
2	2460	2345	1
2	2465	2350	1
2	2470	2355	1
2	2476	2360	1
2	2481	2365	1
2	2486	2370	1
2	2491	2375	1
2	2497	2380	1
2	2502	2385	1
2	2507	2390	1
2	2512	2395	1
2	2518	2400	1
2	2523	2405	1
2	2528	2410	1
2	2533	2415	1
2	2539	2420	1
2	2544	2425	1
2	2549	2430	1
2	2554	2435	1
2	2560	2440	1
2	2565	2445	1
2	2570	2450	1
2	2575	2455	1
2	2581	2460	1
2	2586	2465	1
2	2591	2470	1
2	2596	2475	1
2	2602	2480	1
2	2607	2485	1
2	2612	2490	1
2	2617	2495	1
2	2623	2500	1
2	2628	2505	1
2	2633	2510	1
2	2638	2515	1
2	2644	2520	1
2	2649	2525	1
2	2654	2530	1
2	2659	2535	1
2	2665	2540	1
2	2670	2545	1
2	2675	2550	1
2	2680	2555	1
2	2686	2560	1
2	2691	2565	1
2	2696	2570	1
2	2701	2575	1
2	2707	2580	1
2	2712	2585	1
2	2717	2590	1
2	2722	2595	1
2	2728	2600	1
2	2733	2605	1
2	2738	2610	1
2	2743	2615	1
2	2749	2620	1
2	2754	2625	1
2	2759	2630	1
2	2764	2635	1
2	2770	2640	1
2	2775	2645	1
2	2780	2650	1
2	2785	2655	1
2	2791	2660	1
2	2796	2665	1
2	2801	2670	1
2	2806	2675	1
2	2812	2680	1
2	2817	2685	1
2	2822	2690	1
2	2827	2695	1
2	2833	2700	1
2	2838	2705	1
2	2843	2710	1
2	2848	2715	1
2	2854	2720	1
2	2859	2725	1
2	2864	2730	1
2	2869	2735	1
2	2875	2740	1
2	2880	2745	1
2	2885	2750	1
2	2890	2755	1
2	2896	2760	1
2	2901	2765	1
2	2906	2770	1
2	2911	2775	1
2	2917	2780	1
2	2922	2785	1
2	2927	2790	1
2	2932	2795	1
2	2938	2800	1
2	2943	2805	1
2	2948	2810	1
2	2953	2815	1
2	2959	2820	1
2	2964	2825	1
2	2969	2830	1
2	2974	2835	1
2	2980	2840	1
2	2985	2845	1
2	2990	2850	1
2	2995	2855	1
2	3001	2860	1
2	3006	2865	1
2	3011	2870	1
2	3016	2875	1
2	3022	2880	1
2	3027	2885	1
2	3032	2890	1
2	3037	2895	1
2	3043	2900	1
2	3048	2905	1
2	3053	2910	1
2	3058	2915	1
2	3064	2920	1
2	3069	2925	1
2	3074	2930	1
2	3079	2935	1
2	3085	2940	1
2	3090	2945	1
2	3095	2950	1
2	3100	2955	1
2	3106	2960	1
2	3111	2965	1
2	3116	2970	1
2	3121	2975	1
2	3127	2980	1
2	3132	2985	1
2	3137	2990	1
2	3142	2995	1
2	3148	3000	1
2	3153	3005	1
2	3158	3010	1
2	3163	3015	1
2	3169	3020	1
2	3174	3025	1
2	3179	3030	1
2	3184	3035	1
2	3190	3040	1
2	3195	3045	1
2	3200	3050	1
2	3205	3055	1
2	3211	3060	1
2	3216	3065	1
2	3221	3070	1
2	3226	3075	1
2	3232	3080	1
2	3237	3085	1
2	3242	3090	1
2	3247	3095	1
2	3253	3100	1
2	3258	3105	1
2	3263	3110	1
2	3268	3115	1
2	3274	3120	1
2	3279	3125	1
2	3284	3130	1
2	3289	3135	1
2	3295	3140	1
2	3300	3145	1
2	3305	3150	1
2	3310	3155	1
2	3316	3160	1
2	3321	3165	1
2	3326	3170	1
2	3331	3175	1
2	3337	3180	1
2	3342	3185	1
2	3347	3190	1
2	3352	3195	1
2	3358	3200	1
2	3363	3205	1
2	3368	3210	1
2	3373	3215	1
2	3379	3220	1
2	3384	3225	1
2	3389	3230	1
2	3394	3235	1
2	3400	3240	1
2	3405	3245	1
2	3410	3250	1
2	3415	3255	1
2	3421	3260	1
2	3426	3265	1
2	3431	3270	1
2	3436	3275	1
2	3442	3280	1
2	3447	3285	1
2	3452	3290	1
2	3457	3295	1
2	3463	3300	1
2	3468	3305	1
2	3473	3310	1
2	3478	3315	1
2	3484	3320	1
2	3489	3325	1
2	3494	3330	1
2	3499	3335	1
2	3505	3340	1
2	3510	3345	1
2	3515	3350	1
2	3520	3355	1
2	3526	3360	1
2	3531	3365	1
2	3536	3370	1
2	3541	3375	1
2	3547	3380	1
2	3552	3385	1
2	3557	3390	1
2	3562	3395	1
2	3568	3400	1
2	3573	3405	1
2	3578	3410	1
2	3583	3415	1
2	3589	3420	1
2	3594	3425	1
2	3599	3430	1
2	3604	3435	1
2	3610	3440	1
2	3615	3445	1
2	3620	3450	1
2	3625	3455	1
2	3631	3460	1
2	3636	3465	1
2	3641	3470	1
2	3646	3475	1
2	3652	3480	1
2	3657	3485	1
2	3662	3490	1
2	3667	3495	1
2	3673	3500	1
2	3678	3505	1
2	3683	3510	1
2	3688	3515	1
2	3694	3520	1
2	3699	3525	1
2	3704	3530	1
2	3709	3535	1
2	3715	3540	1
2	3720	3545	1
2	3725	3550	1
2	3730	3555	1
2	3736	3560	1
2	3741	3565	1
2	3746	3570	1
2	3751	3575	1
2	3757	3580	1
2	3762	3585	1
2	3767	3590	1
2	3772	3595	1
2	3778	3600	1
3	8	10	6
3	13	15	7
3	19	20	8
3	24	25	9
3	29	30	10
3	34	35	11
3	40	40	12
3	45	45	13
3	50	50	14
3	55	55	15
3	61	60	16
3	66	65	17
3	71	70	18
3	76	75	19
3	82	80	20
3	87	85	21
3	92	90	22
3	97	95	23
3	103	100	24
3	108	105	21
3	113	110	22
3	118	115	23
3	124	120	24
3	129	125	21
3	134	130	22
3	139	135	23
3	145	140	24
3	150	145	21
3	155	150	22
3	160	155	23
3	166	160	24
3	171	165	21
3	176	170	22
3	181	175	23
3	187	180	24
3	192	185	21
3	197	190	22
3	202	195	23
3	208	200	24
3	213	205	21
3	218	210	22
3	223	215	23
3	229	220	24
3	234	225	21
3	239	230	22
3	244	235	23
3	250	240	24
3	255	245	21
3	260	250	22
3	265	255	23
3	271	260	24
3	276	265	21
3	281	270	22
3	286	275	23
3	292	280	24
3	297	285	21
3	302	290	22
3	307	295	23
3	313	300	24
3	318	305	21
3	323	310	22
3	328	315	23
3	334	320	24
3	339	325	21
3	344	330	22
3	349	335	23
3	355	340	24
3	360	345	21
3	365	350	22
3	370	355	23
3	376	360	24
3	381	365	21
3	386	370	22
3	391	375	23
3	397	380	24
3	402	385	21
3	407	390	22
3	412	395	23
3	418	400	24
3	423	405	21
3	428	410	22
3	433	415	23
3	439	420	24
3	444	425	21
3	449	430	22
3	454	435	23
3	460	440	24
3	465	445	21
3	470	450	22
3	475	455	23
3	481	460	24
3	486	465	21
3	491	470	22
3	496	475	23
3	502	480	24
3	507	485	21
3	512	490	22
3	517	495	23
3	523	500	24
3	528	505	21
3	533	510	22
3	538	515	23
3	544	520	24
3	549	525	21
3	554	530	22
3	559	535	23
3	565	540	24
3	570	545	21
3	575	550	22
3	580	555	23
3	586	560	24
3	591	565	21
3	596	570	22
3	601	575	23
3	607	580	24
3	612	585	21
3	617	590	22
3	622	595	23
3	628	600	24
3	633	605	21
3	638	610	22
3	643	615	23
3	649	620	24
3	654	625	21
3	659	630	22
3	664	635	23
3	670	640	24
3	675	645	21
3	680	650	22
3	685	655	23
3	691	660	24
3	696	665	21
3	701	670	22
3	706	675	23
3	712	680	24
3	717	685	21
3	722	690	22
3	727	695	23
3	733	700	24
3	738	705	21
3	743	710	22
3	748	715	23
3	754	720	24
3	759	725	21
3	764	730	22
3	769	735	23
3	775	740	24
3	780	745	21
3	785	750	22
3	790	755	23
3	796	760	24
3	801	765	21
3	806	770	22
3	811	775	23
3	817	780	24
3	822	785	21
3	827	790	22
3	832	795	23
3	838	800	24
3	843	805	21
3	848	810	22
3	853	815	23
3	859	820	24
3	864	825	21
3	869	830	22
3	874	835	23
3	880	840	24
3	885	845	21
3	890	850	22
3	895	855	23
3	901	860	24
3	906	865	21
3	911	870	22
3	916	875	23
3	922	880	24
3	927	885	21
3	932	890	22
3	937	895	23
3	943	900	24
3	948	905	21
3	953	910	22
3	958	915	23
3	964	920	24
3	969	925	21
3	974	930	22
3	979	935	23
3	985	940	24
3	990	945	21
3	995	950	22
3	1000	955	23
3	1006	960	24
3	1011	965	21
3	1016	970	22
3	1021	975	23
3	1027	980	24
3	1032	985	21
3	1037	990	22
3	1042	995	23
3	1048	1000	24
3	1053	1005	21
3	1058	1010	22
3	1063	1015	23
3	1069	1020	24
3	1074	1025	21
3	1079	1030	22
3	1084	1035	23
3	1090	1040	24
3	1095	1045	21
3	1100	1050	22
3	1105	1055	23
3	1111	1060	24
3	1116	1065	21
3	1121	1070	22
3	1126	1075	23
3	1132	1080	24
3	1137	1085	21
3	1142	1090	22
3	1147	1095	23
3	1153	1100	24
3	1158	1105	21
3	1163	1110	22
3	1168	1115	23
3	1174	1120	24
3	1179	1125	21
3	1184	1130	22
3	1189	1135	23
3	1195	1140	24
3	1200	1145	21
3	1205	1150	22
3	1210	1155	23
3	1216	1160	24
3	1221	1165	21
3	1226	1170	22
3	1231	1175	23
3	1237	1180	24
3	1242	1185	21
3	1247	1190	22
3	1252	1195	23
3	1258	1200	24
3	1263	1205	21
3	1268	1210	22
3	1273	1215	23
3	1279	1220	24
3	1284	1225	21
3	1289	1230	22
3	1294	1235	23
3	1300	1240	24
3	1305	1245	21
3	1310	1250	22
3	1315	1255	23
3	1321	1260	24
3	1326	1265	21
3	1331	1270	22
3	1336	1275	23
3	1342	1280	24
3	1347	1285	21
3	1352	1290	22
3	1357	1295	23
3	1363	1300	24
3	1368	1305	21
3	1373	1310	22
3	1378	1315	23
3	1384	1320	24
3	1389	1325	21
3	1394	1330	22
3	1399	1335	23
3	1405	1340	24
3	1410	1345	21
3	1415	1350	22
3	1420	1355	23
3	1426	1360	24
3	1431	1365	21
3	1436	1370	22
3	1441	1375	23
3	1447	1380	24
3	1452	1385	21
3	1457	1390	22
3	1462	1395	23
3	1468	1400	24
3	1473	1405	21
3	1478	1410	22
3	1483	1415	23
3	1489	1420	24
3	1494	1425	21
3	1499	1430	22
3	1504	1435	23
3	1510	1440	24
3	1515	1445	21
3	1520	1450	22
3	1525	1455	23
3	1531	1460	24
3	1536	1465	21
3	1541	1470	22
3	1546	1475	23
3	1552	1480	24
3	1557	1485	21
3	1562	1490	22
3	1567	1495	23
3	1573	1500	24
3	1578	1505	21
3	1583	1510	22
3	1588	1515	23
3	1594	1520	24
3	1599	1525	21
3	1604	1530	22
3	1609	1535	23
3	1615	1540	24
3	1620	1545	21
3	1625	1550	22
3	1630	1555	23
3	1636	1560	24
3	1641	1565	21
3	1646	1570	22
3	1651	1575	23
3	1657	1580	24
3	1662	1585	21
3	1667	1590	22
3	1672	1595	23
3	1678	1600	24
3	1683	1605	21
3	1688	1610	22
3	1693	1615	23
3	1699	1620	24
3	1704	1625	21
3	1709	1630	22
3	1714	1635	23
3	1720	1640	24
3	1725	1645	21
3	1730	1650	22
3	1735	1655	23
3	1741	1660	24
3	1746	1665	21
3	1751	1670	22
3	1756	1675	23
3	1762	1680	24
3	1767	1685	21
3	1772	1690	22
3	1777	1695	23
3	1783	1700	24
3	1788	1705	21
3	1793	1710	22
3	1798	1715	23
3	1804	1720	24
3	1809	1725	21
3	1814	1730	22
3	1819	1735	23
3	1825	1740	24
3	1830	1745	21
3	1835	1750	22
3	1840	1755	23
3	1846	1760	24
3	1851	1765	21
3	1856	1770	22
3	1861	1775	23
3	1867	1780	24
3	1872	1785	21
3	1877	1790	22
3	1882	1795	23
3	1888	1800	24
3	1893	1805	21
3	1898	1810	22
3	1903	1815	23
3	1909	1820	24
3	1914	1825	21
3	1919	1830	22
3	1924	1835	23
3	1930	1840	24
3	1935	1845	21
3	1940	1850	22
3	1945	1855	23
3	1951	1860	24
3	1956	1865	21
3	1961	1870	22
3	1966	1875	23
3	1972	1880	24
3	1977	1885	21
3	1982	1890	22
3	1987	1895	23
3	1993	1900	24
3	1998	1905	21
3	2003	1910	22
3	2008	1915	23
3	2014	1920	24
3	2019	1925	21
3	2024	1930	22
3	2029	1935	23
3	2035	1940	24
3	2040	1945	21
3	2045	1950	22
3	2050	1955	23
3	2056	1960	24
3	2061	1965	21
3	2066	1970	22
3	2071	1975	23
3	2077	1980	24
3	2082	1985	21
3	2087	1990	22
3	2092	1995	23
3	2098	2000	24
3	2103	2005	21
3	2108	2010	22
3	2113	2015	23
3	2119	2020	24
3	2124	2025	21
3	2129	2030	22
3	2134	2035	23
3	2140	2040	24
3	2145	2045	21
3	2150	2050	22
3	2155	2055	23
3	2161	2060	24
3	2166	2065	21
3	2171	2070	22
3	2176	2075	23
3	2182	2080	24
3	2187	2085	21
3	2192	2090	22
3	2197	2095	23
3	2203	2100	24
3	2208	2105	21
3	2213	2110	22
3	2218	2115	23
3	2224	2120	24
3	2229	2125	21
3	2234	2130	22
3	2239	2135	23
3	2245	2140	24
3	2250	2145	21
3	2255	2150	22
3	2260	2155	23
3	2266	2160	24
3	2271	2165	21
3	2276	2170	22
3	2281	2175	23
3	2287	2180	24
3	2292	2185	21
3	2297	2190	22
3	2302	2195	23
3	2308	2200	24
3	2313	2205	21
3	2318	2210	22
3	2323	2215	23
3	2329	2220	24
3	2334	2225	21
3	2339	2230	22
3	2344	2235	23
3	2350	2240	24
3	2355	2245	21
3	2360	2250	22
3	2365	2255	23
3	2371	2260	24
3	2376	2265	21
3	2381	2270	22
3	2386	2275	23
3	2392	2280	24
3	2397	2285	21
3	2402	2290	22
3	2407	2295	23
3	2413	2300	24
3	2418	2305	21
3	2423	2310	22
3	2428	2315	23
3	2434	2320	24
3	2439	2325	21
3	2444	2330	22
3	2449	2335	23
3	2455	2340	24
3	2460	2345	21
3	2465	2350	22
3	2470	2355	23
3	2476	2360	24
3	2481	2365	21
3	2486	2370	22
3	2491	2375	23
3	2497	2380	24
3	2502	2385	21
3	2507	2390	22
3	2512	2395	23
3	2518	2400	24
3	2523	2405	21
3	2528	2410	22
3	2533	2415	23
3	2539	2420	24
3	2544	2425	21
3	2549	2430	22
3	2554	2435	23
3	2560	2440	24
3	2565	2445	21
3	2570	2450	22
3	2575	2455	23
3	2581	2460	24
3	2586	2465	21
3	2591	2470	22
3	2596	2475	23
3	2602	2480	24
3	2607	2485	21
3	2612	2490	22
3	2617	2495	23
3	2623	2500	24
3	2628	2505	21
3	2633	2510	22
3	2638	2515	23
3	2644	2520	24
3	2649	2525	21
3	2654	2530	22
3	2659	2535	23
3	2665	2540	24
3	2670	2545	21
3	2675	2550	22
3	2680	2555	23
3	2686	2560	24
3	2691	2565	21
3	2696	2570	22
3	2701	2575	23
3	2707	2580	24
3	2712	2585	21
3	2717	2590	22
3	2722	2595	23
3	2728	2600	24
3	2733	2605	21
3	2738	2610	22
3	2743	2615	23
3	2749	2620	24
3	2754	2625	21
3	2759	2630	22
3	2764	2635	23
3	2770	2640	24
3	2775	2645	21
3	2780	2650	22
3	2785	2655	23
3	2791	2660	24
3	2796	2665	21
3	2801	2670	22
3	2806	2675	23
3	2812	2680	24
3	2817	2685	21
3	2822	2690	22
3	2827	2695	23
3	2833	2700	24
3	2838	2705	21
3	2843	2710	22
3	2848	2715	23
3	2854	2720	24
3	2859	2725	21
3	2864	2730	22
3	2869	2735	23
3	2875	2740	24
3	2880	2745	21
3	2885	2750	22
3	2890	2755	23
3	2896	2760	24
3	2901	2765	21
3	2906	2770	22
3	2911	2775	23
3	2917	2780	24
3	2922	2785	21
3	2927	2790	22
3	2932	2795	23
3	2938	2800	24
3	2943	2805	21
3	2948	2810	22
3	2953	2815	23
3	2959	2820	24
3	2964	2825	21
3	2969	2830	22
3	2974	2835	23
3	2980	2840	24
3	2985	2845	21
3	2990	2850	22
3	2995	2855	23
3	3001	2860	24
3	3006	2865	21
3	3011	2870	22
3	3016	2875	23
3	3022	2880	24
3	3027	2885	21
3	3032	2890	22
3	3037	2895	23
3	3043	2900	24
3	3048	2905	21
3	3053	2910	22
3	3058	2915	23
3	3064	2920	24
3	3069	2925	21
3	3074	2930	22
3	3079	2935	23
3	3085	2940	24
3	3090	2945	21
3	3095	2950	22
3	3100	2955	23
3	3106	2960	24
3	3111	2965	21
3	3116	2970	22
3	3121	2975	23
3	3127	2980	24
3	3132	2985	21
3	3137	2990	22
3	3142	2995	23
3	3148	3000	24
3	3153	3005	21
3	3158	3010	22
3	3163	3015	23
3	3169	3020	24
3	3174	3025	21
3	3179	3030	22
3	3184	3035	23
3	3190	3040	24
3	3195	3045	21
3	3200	3050	22
3	3205	3055	23
3	3211	3060	24
3	3216	3065	21
3	3221	3070	22
3	3226	3075	23
3	3232	3080	24
3	3237	3085	21
3	3242	3090	22
3	3247	3095	23
3	3253	3100	24
3	3258	3105	21
3	3263	3110	22
3	3268	3115	23
3	3274	3120	24
3	3279	3125	21
3	3284	3130	22
3	3289	3135	23
3	3295	3140	24
3	3300	3145	21
3	3305	3150	22
3	3310	3155	23
3	3316	3160	24
3	3321	3165	21
3	3326	3170	22
3	3331	3175	23
3	3337	3180	24
3	3342	3185	21
3	3347	3190	22
3	3352	3195	23
3	3358	3200	24
3	3363	3205	21
3	3368	3210	22
3	3373	3215	23
3	3379	3220	24
3	3384	3225	21
3	3389	3230	22
3	3394	3235	23
3	3400	3240	24
3	3405	3245	21
3	3410	3250	22
3	3415	3255	23
3	3421	3260	24
3	3426	3265	21
3	3431	3270	22
3	3436	3275	23
3	3442	3280	24
3	3447	3285	21
3	3452	3290	22
3	3457	3295	23
3	3463	3300	24
3	3468	3305	21
3	3473	3310	22
3	3478	3315	23
3	3484	3320	24
3	3489	3325	21
3	3494	3330	22
3	3499	3335	23
3	3505	3340	24
3	3510	3345	21
3	3515	3350	22
3	3520	3355	23
3	3526	3360	24
3	3531	3365	21
3	3536	3370	22
3	3541	3375	23
3	3547	3380	24
3	3552	3385	21
3	3557	3390	22
3	3562	3395	23
3	3568	3400	24
3	3573	3405	21
3	3578	3410	22
3	3583	3415	23
3	3589	3420	24
3	3594	3425	21
3	3599	3430	22
3	3604	3435	23
3	3610	3440	24
3	3615	3445	21
3	3620	3450	22
3	3625	3455	23
3	3631	3460	24
3	3636	3465	21
3	3641	3470	22
3	3646	3475	23
3	3652	3480	24
3	3657	3485	21
3	3662	3490	22
3	3667	3495	23
3	3673	3500	24
3	3678	3505	21
3	3683	3510	22
3	3688	3515	23
3	3694	3520	24
3	3699	3525	21
3	3704	3530	22
3	3709	3535	23
3	3715	3540	24
3	3720	3545	21
3	3725	3550	22
3	3730	3555	23
3	3736	3560	24
3	3741	3565	21
3	3746	3570	22
3	3751	3575	23
3	3757	3580	24
3	3762	3585	21
3	3767	3590	22
3	3772	3595	23
3	3778	3600	24
4	8	10	0
4	13	15	0
4	19	20	0
4	24	25	0
4	29	30	0
4	34	35	0
4	40	40	0
4	45	45	0
4	50	50	0
4	55	55	0
4	61	60	0
4	66	65	0
4	71	70	0
4	76	75	0
4	82	80	1
4	87	85	1
4	92	90	1
4	97	95	1
4	103	100	1
4	108	105	1
4	113	110	1
4	118	115	1
4	124	120	1
4	129	125	1
4	134	130	1
4	139	135	1
4	145	140	1
4	150	145	1
4	155	150	1
4	160	155	1
4	166	160	1
4	171	165	1
4	176	170	1
4	181	175	1
4	187	180	1
4	192	185	1
4	197	190	1
4	202	195	1
4	208	200	1
4	213	205	1
4	218	210	1
4	223	215	1
4	229	220	1
4	234	225	1
4	239	230	1
4	244	235	1
4	250	240	1
4	255	245	1
4	260	250	1
4	265	255	1
4	271	260	1
4	276	265	1
4	281	270	1
4	286	275	1
4	292	280	1
4	297	285	1
4	302	290	1
4	307	295	1
4	313	300	1
4	318	305	1
4	323	310	1
4	328	315	1
4	334	320	1
4	339	325	1
4	344	330	1
4	349	335	1
4	355	340	1
4	360	345	1
4	365	350	1
4	370	355	1
4	376	360	1
4	381	365	1
4	386	370	1
4	391	375	1
4	397	380	1
4	402	385	1
4	407	390	1
4	412	395	1
4	418	400	1
4	423	405	1
4	428	410	1
4	433	415	1
4	439	420	1
4	444	425	1
4	449	430	1
4	454	435	1
4	460	440	1
4	465	445	1
4	470	450	1
4	475	455	1
4	481	460	1
4	486	465	1
4	491	470	1
4	496	475	1
4	502	480	1
4	507	485	1
4	512	490	1
4	517	495	1
4	523	500	1
4	528	505	1
4	533	510	1
4	538	515	1
4	544	520	1
4	549	525	1
4	554	530	1
4	559	535	1
4	565	540	1
4	570	545	1
4	575	550	1
4	580	555	1
4	586	560	1
4	591	565	1
4	596	570	1
4	601	575	1
4	607	580	1
4	612	585	1
4	617	590	1
4	622	595	1
4	628	600	1
4	633	605	1
4	638	610	1
4	643	615	1
4	649	620	1
4	654	625	1
4	659	630	1
4	664	635	1
4	670	640	1
4	675	645	1
4	680	650	1
4	685	655	1
4	691	660	1
4	696	665	1
4	701	670	1
4	706	675	1
4	712	680	1
4	717	685	1
4	722	690	1
4	727	695	1
4	733	700	1
4	738	705	1
4	743	710	1
4	748	715	1
4	754	720	1
4	759	725	1
4	764	730	1
4	769	735	1
4	775	740	1
4	780	745	1
4	785	750	1
4	790	755	1
4	796	760	1
4	801	765	1
4	806	770	1
4	811	775	1
4	817	780	1
4	822	785	1
4	827	790	1
4	832	795	1
4	838	800	1
4	843	805	1
4	848	810	1
4	853	815	1
4	859	820	1
4	864	825	1
4	869	830	1
4	874	835	1
4	880	840	1
4	885	845	1
4	890	850	1
4	895	855	1
4	901	860	1
4	906	865	1
4	911	870	1
4	916	875	1
4	922	880	1
4	927	885	1
4	932	890	1
4	937	895	1
4	943	900	1
4	948	905	1
4	953	910	1
4	958	915	1
4	964	920	1
4	969	925	1
4	974	930	1
4	979	935	1
4	985	940	1
4	990	945	1
4	995	950	1
4	1000	955	1
4	1006	960	1
4	1011	965	1
4	1016	970	1
4	1021	975	1
4	1027	980	1
4	1032	985	1
4	1037	990	1
4	1042	995	1
4	1048	1000	1
4	1053	1005	1
4	1058	1010	1
4	1063	1015	1
4	1069	1020	1
4	1074	1025	1
4	1079	1030	1
4	1084	1035	1
4	1090	1040	1
4	1095	1045	1
4	1100	1050	1
4	1105	1055	1
4	1111	1060	1
4	1116	1065	1
4	1121	1070	1
4	1126	1075	1
4	1132	1080	1
4	1137	1085	1
4	1142	1090	1
4	1147	1095	1
4	1153	1100	1
4	1158	1105	1
4	1163	1110	1
4	1168	1115	1
4	1174	1120	1
4	1179	1125	1
4	1184	1130	1
4	1189	1135	1
4	1195	1140	1
4	1200	1145	1
4	1205	1150	1
4	1210	1155	1
4	1216	1160	1
4	1221	1165	1
4	1226	1170	1
4	1231	1175	1
4	1237	1180	1
4	1242	1185	1
4	1247	1190	1
4	1252	1195	1
4	1258	1200	1
4	1263	1205	1
4	1268	1210	1
4	1273	1215	1
4	1279	1220	1
4	1284	1225	1
4	1289	1230	1
4	1294	1235	1
4	1300	1240	1
4	1305	1245	1
4	1310	1250	1
4	1315	1255	1
4	1321	1260	1
4	1326	1265	1
4	1331	1270	1
4	1336	1275	1
4	1342	1280	1
4	1347	1285	1
4	1352	1290	1
4	1357	1295	1
4	1363	1300	1
4	1368	1305	1
4	1373	1310	1
4	1378	1315	1
4	1384	1320	1
4	1389	1325	1
4	1394	1330	1
4	1399	1335	1
4	1405	1340	1
4	1410	1345	1
4	1415	1350	1
4	1420	1355	1
4	1426	1360	1
4	1431	1365	1
4	1436	1370	1
4	1441	1375	1
4	1447	1380	1
4	1452	1385	1
4	1457	1390	1
4	1462	1395	1
4	1468	1400	1
4	1473	1405	1
4	1478	1410	1
4	1483	1415	1
4	1489	1420	1
4	1494	1425	1
4	1499	1430	1
4	1504	1435	1
4	1510	1440	1
4	1515	1445	1
4	1520	1450	1
4	1525	1455	1
4	1531	1460	1
4	1536	1465	1
4	1541	1470	1
4	1546	1475	1
4	1552	1480	1
4	1557	1485	1
4	1562	1490	1
4	1567	1495	1
4	1573	1500	1
4	1578	1505	1
4	1583	1510	1
4	1588	1515	1
4	1594	1520	1
4	1599	1525	1
4	1604	1530	1
4	1609	1535	1
4	1615	1540	1
4	1620	1545	1
4	1625	1550	1
4	1630	1555	1
4	1636	1560	1
4	1641	1565	1
4	1646	1570	1
4	1651	1575	1
4	1657	1580	1
4	1662	1585	1
4	1667	1590	1
4	1672	1595	1
4	1678	1600	1
4	1683	1605	1
4	1688	1610	1
4	1693	1615	1
4	1699	1620	1
4	1704	1625	1
4	1709	1630	1
4	1714	1635	1
4	1720	1640	1
4	1725	1645	1
4	1730	1650	1
4	1735	1655	1
4	1741	1660	1
4	1746	1665	1
4	1751	1670	1
4	1756	1675	1
4	1762	1680	1
4	1767	1685	1
4	1772	1690	1
4	1777	1695	1
4	1783	1700	1
4	1788	1705	1
4	1793	1710	1
4	1798	1715	1
4	1804	1720	1
4	1809	1725	1
4	1814	1730	1
4	1819	1735	1
4	1825	1740	1
4	1830	1745	1
4	1835	1750	1
4	1840	1755	1
4	1846	1760	1
4	1851	1765	1
4	1856	1770	1
4	1861	1775	1
4	1867	1780	1
4	1872	1785	1
4	1877	1790	1
4	1882	1795	1
4	1888	1800	1
4	1893	1805	1
4	1898	1810	1
4	1903	1815	1
4	1909	1820	1
4	1914	1825	1
4	1919	1830	1
4	1924	1835	1
4	1930	1840	1
4	1935	1845	1
4	1940	1850	1
4	1945	1855	1
4	1951	1860	1
4	1956	1865	1
4	1961	1870	1
4	1966	1875	1
4	1972	1880	1
4	1977	1885	1
4	1982	1890	1
4	1987	1895	1
4	1993	1900	1
4	1998	1905	1
4	2003	1910	1
4	2008	1915	1
4	2014	1920	1
4	2019	1925	1
4	2024	1930	1
4	2029	1935	1
4	2035	1940	1
4	2040	1945	1
4	2045	1950	1
4	2050	1955	1
4	2056	1960	1
4	2061	1965	1
4	2066	1970	1
4	2071	1975	1
4	2077	1980	1
4	2082	1985	1
4	2087	1990	1
4	2092	1995	1
4	2098	2000	1
4	2103	2005	1
4	2108	2010	1
4	2113	2015	1
4	2119	2020	1
4	2124	2025	1
4	2129	2030	1
4	2134	2035	1
4	2140	2040	1
4	2145	2045	1
4	2150	2050	1
4	2155	2055	1
4	2161	2060	1
4	2166	2065	1
4	2171	2070	1
4	2176	2075	1
4	2182	2080	1
4	2187	2085	1
4	2192	2090	1
4	2197	2095	1
4	2203	2100	1
4	2208	2105	1
4	2213	2110	1
4	2218	2115	1
4	2224	2120	1
4	2229	2125	1
4	2234	2130	1
4	2239	2135	1
4	2245	2140	1
4	2250	2145	1
4	2255	2150	1
4	2260	2155	1
4	2266	2160	1
4	2271	2165	1
4	2276	2170	1
4	2281	2175	1
4	2287	2180	1
4	2292	2185	1
4	2297	2190	1
4	2302	2195	1
4	2308	2200	1
4	2313	2205	1
4	2318	2210	1
4	2323	2215	1
4	2329	2220	1
4	2334	2225	1
4	2339	2230	1
4	2344	2235	1
4	2350	2240	1
4	2355	2245	1
4	2360	2250	1
4	2365	2255	1
4	2371	2260	1
4	2376	2265	1
4	2381	2270	1
4	2386	2275	1
4	2392	2280	1
4	2397	2285	1
4	2402	2290	1
4	2407	2295	1
4	2413	2300	1
4	2418	2305	1
4	2423	2310	1
4	2428	2315	1
4	2434	2320	1
4	2439	2325	1
4	2444	2330	1
4	2449	2335	1
4	2455	2340	1
4	2460	2345	1
4	2465	2350	1
4	2470	2355	1
4	2476	2360	1
4	2481	2365	1
4	2486	2370	1
4	2491	2375	1
4	2497	2380	1
4	2502	2385	1
4	2507	2390	1
4	2512	2395	1
4	2518	2400	1
4	2523	2405	1
4	2528	2410	1
4	2533	2415	1
4	2539	2420	1
4	2544	2425	1
4	2549	2430	1
4	2554	2435	1
4	2560	2440	1
4	2565	2445	1
4	2570	2450	1
4	2575	2455	1
4	2581	2460	1
4	2586	2465	1
4	2591	2470	1
4	2596	2475	1
4	2602	2480	1
4	2607	2485	1
4	2612	2490	1
4	2617	2495	1
4	2623	2500	1
4	2628	2505	1
4	2633	2510	1
4	2638	2515	1
4	2644	2520	1
4	2649	2525	1
4	2654	2530	1
4	2659	2535	1
4	2665	2540	1
4	2670	2545	1
4	2675	2550	1
4	2680	2555	1
4	2686	2560	1
4	2691	2565	1
4	2696	2570	1
4	2701	2575	1
4	2707	2580	1
4	2712	2585	1
4	2717	2590	1
4	2722	2595	1
4	2728	2600	1
4	2733	2605	1
4	2738	2610	1
4	2743	2615	1
4	2749	2620	1
4	2754	2625	1
4	2759	2630	1
4	2764	2635	1
4	2770	2640	1
4	2775	2645	1
4	2780	2650	1
4	2785	2655	1
4	2791	2660	1
4	2796	2665	1
4	2801	2670	1
4	2806	2675	1
4	2812	2680	1
4	2817	2685	1
4	2822	2690	1
4	2827	2695	1
4	2833	2700	1
4	2838	2705	1
4	2843	2710	1
4	2848	2715	1
4	2854	2720	1
4	2859	2725	1
4	2864	2730	1
4	2869	2735	1
4	2875	2740	1
4	2880	2745	1
4	2885	2750	1
4	2890	2755	1
4	2896	2760	1
4	2901	2765	1
4	2906	2770	1
4	2911	2775	1
4	2917	2780	1
4	2922	2785	1
4	2927	2790	1
4	2932	2795	1
4	2938	2800	1
4	2943	2805	1
4	2948	2810	1
4	2953	2815	1
4	2959	2820	1
4	2964	2825	1
4	2969	2830	1
4	2974	2835	1
4	2980	2840	1
4	2985	2845	1
4	2990	2850	1
4	2995	2855	1
4	3001	2860	1
4	3006	2865	1
4	3011	2870	1
4	3016	2875	1
4	3022	2880	1
4	3027	2885	1
4	3032	2890	1
4	3037	2895	1
4	3043	2900	1
4	3048	2905	1
4	3053	2910	1
4	3058	2915	1
4	3064	2920	1
4	3069	2925	1
4	3074	2930	1
4	3079	2935	1
4	3085	2940	1
4	3090	2945	1
4	3095	2950	1
4	3100	2955	1
4	3106	2960	1
4	3111	2965	1
4	3116	2970	1
4	3121	2975	1
4	3127	2980	1
4	3132	2985	1
4	3137	2990	1
4	3142	2995	1
4	3148	3000	1
4	3153	3005	1
4	3158	3010	1
4	3163	3015	1
4	3169	3020	1
4	3174	3025	1
4	3179	3030	1
4	3184	3035	1
4	3190	3040	1
4	3195	3045	1
4	3200	3050	1
4	3205	3055	1
4	3211	3060	1
4	3216	3065	1
4	3221	3070	1
4	3226	3075	1
4	3232	3080	1
4	3237	3085	1
4	3242	3090	1
4	3247	3095	1
4	3253	3100	1
4	3258	3105	1
4	3263	3110	1
4	3268	3115	1
4	3274	3120	1
4	3279	3125	1
4	3284	3130	1
4	3289	3135	1
4	3295	3140	1
4	3300	3145	1
4	3305	3150	1
4	3310	3155	1
4	3316	3160	1
4	3321	3165	1
4	3326	3170	1
4	3331	3175	1
4	3337	3180	1
4	3342	3185	1
4	3347	3190	1
4	3352	3195	1
4	3358	3200	1
4	3363	3205	1
4	3368	3210	1
4	3373	3215	1
4	3379	3220	1
4	3384	3225	1
4	3389	3230	1
4	3394	3235	1
4	3400	3240	1
4	3405	3245	1
4	3410	3250	1
4	3415	3255	1
4	3421	3260	1
4	3426	3265	1
4	3431	3270	1
4	3436	3275	1
4	3442	3280	1
4	3447	3285	1
4	3452	3290	1
4	3457	3295	1
4	3463	3300	1
4	3468	3305	1
4	3473	3310	1
4	3478	3315	1
4	3484	3320	1
4	3489	3325	1
4	3494	3330	1
4	3499	3335	1
4	3505	3340	1
4	3510	3345	1
4	3515	3350	1
4	3520	3355	1
4	3526	3360	1
4	3531	3365	1
4	3536	3370	1
4	3541	3375	1
4	3547	3380	1
4	3552	3385	1
4	3557	3390	1
4	3562	3395	1
4	3568	3400	1
4	3573	3405	1
4	3578	3410	1
4	3583	3415	1
4	3589	3420	1
4	3594	3425	1
4	3599	3430	1
4	3604	3435	1
4	3610	3440	1
4	3615	3445	1
4	3620	3450	1
4	3625	3455	1
4	3631	3460	1
4	3636	3465	1
4	3641	3470	1
4	3646	3475	1
4	3652	3480	1
4	3657	3485	1
4	3662	3490	1
4	3667	3495	1
4	3673	3500	1
4	3678	3505	1
4	3683	3510	1
4	3688	3515	1
4	3694	3520	1
4	3699	3525	1
4	3704	3530	1
4	3709	3535	1
4	3715	3540	1
4	3720	3545	1
4	3725	3550	1
4	3730	3555	1
4	3736	3560	1
4	3741	3565	1
4	3746	3570	1
4	3751	3575	1
4	3757	3580	1
4	3762	3585	1
4	3767	3590	1
4	3772	3595	1
4	3778	3600	1
5	80	80	1
5	101	100	1
5	122	120	1
5	143	140	1
5	164	160	1
5	185	180	1
5	206	200	1
5	227	220	1
5	248	240	1
5	269	260	1
5	290	280	1
5	311	300	1
5	332	320	1
5	353	340	1
5	374	360	1
5	395	380	1
5	416	400	1
5	437	420	1
5	458	440	1
5	479	460	1
5	500	480	1
5	521	500	1
5	542	520	1
5	563	540	1
5	584	560	1
5	605	580	1
5	626	600	1
5	647	620	1
5	668	640	1
5	689	660	1
5	710	680	1
5	731	700	1
5	752	720	1
5	773	740	1
5	794	760	1
5	815	780	1
5	836	800	1
5	857	820	1
5	878	840	1
5	899	860	1
5	920	880	1
5	941	900	1
5	962	920	1
5	983	940	1
5	1004	960	1
5	1025	980	1
5	1046	1000	1
5	1067	1020	1
5	1088	1040	1
5	1109	1060	1
5	1130	1080	1
5	1151	1100	1
5	1172	1120	1
5	1193	1140	1
5	1214	1160	1
5	1235	1180	1
5	1256	1200	1
5	1277	1220	1
5	1298	1240	1
5	1319	1260	1
5	1340	1280	1
5	1361	1300	1
5	1382	1320	1
5	1403	1340	1
5	1424	1360	1
5	1445	1380	1
5	1466	1400	1
5	1487	1420	1
5	1508	1440	1
5	1529	1460	1
5	1550	1480	1
5	1571	1500	1
5	1592	1520	1
5	1613	1540	1
5	1634	1560	1
5	1655	1580	1
5	1676	1600	1
5	1697	1620	1
5	1718	1640	1
5	1739	1660	1
5	1760	1680	1
5	1781	1700	1
5	1802	1720	1
5	1823	1740	1
5	1844	1760	1
5	1865	1780	1
5	1886	1800	1
5	1907	1820	1
5	1928	1840	1
5	1949	1860	1
5	1970	1880	1
5	1991	1900	1
5	2012	1920	1
5	2033	1940	1
5	2054	1960	1
5	2075	1980	1
5	2096	2000	1
5	2117	2020	1
5	2138	2040	1
5	2159	2060	1
5	2180	2080	1
5	2201	2100	1
5	2222	2120	1
5	2243	2140	1
5	2264	2160	1
5	2285	2180	1
5	2306	2200	1
5	2327	2220	1
5	2348	2240	1
5	2369	2260	1
5	2390	2280	1
5	2411	2300	1
5	2432	2320	1
5	2453	2340	1
5	2474	2360	1
5	2495	2380	1
5	2516	2400	1
5	2537	2420	1
5	2558	2440	1
5	2579	2460	1
5	2600	2480	1
5	2621	2500	1
5	2642	2520	1
5	2663	2540	1
5	2684	2560	1
5	2705	2580	1
5	2726	2600	1
5	2747	2620	1
5	2768	2640	1
5	2789	2660	1
5	2810	2680	1
5	2831	2700	1
5	2852	2720	1
5	2873	2740	1
5	2894	2760	1
5	2915	2780	1
5	2936	2800	1
5	2957	2820	1
5	2978	2840	1
5	2999	2860	1
5	3020	2880	1
5	3041	2900	1
5	3062	2920	1
5	3083	2940	1
5	3104	2960	1
5	3125	2980	1
5	3146	3000	1
5	3167	3020	1
5	3188	3040	1
5	3209	3060	1
5	3230	3080	1
5	3251	3100	1
5	3272	3120	1
5	3293	3140	1
5	3314	3160	1
5	3335	3180	1
5	3356	3200	1
5	3377	3220	1
5	3398	3240	1
5	3419	3260	1
5	3440	3280	1
5	3461	3300	1
5	3482	3320	1
5	3503	3340	1
5	3524	3360	1
5	3545	3380	1
5	3566	3400	1
5	3587	3420	1
5	3608	3440	1
5	3629	3460	1
5	3650	3480	1
5	3671	3500	1
5	3692	3520	1
5	3713	3540	1
5	3734	3560	1
5	3755	3580	1
5	3776	3600	1

