version 2
run SimulationScenario-0-20210122-17:34:09-18824
attr configname SimulationScenario
attr datetime 20210122-17:34:09
attr experiment SimulationScenario
attr inifile omnetpp.ini
attr iterationvars "$0=5, $1=6, $2=0.2, $3=25ms"
attr iterationvarsf 5,6,0.2,25ms-
attr measurement "$0=5, $1=6, $2=0.2, $3=25ms"
attr network slottedNetwork
attr processid 18824
attr repetition 0
attr replication #0
attr resultdir results
attr runnumber 0
attr seedset 0
param **.numTransmitters 5
param **.numChannels 6
param **.sendProbability 0.2
param **.expMean 25ms
param **.timeSlotSize 5ms
param **.thresh 50ms
param **.numTransmitters 1
param **.numChannels 1
param **.sendProbability 1
param **.expMean 5s
param **.timeSlotSize 5s
param **.thresh 20s
param **.deterministicInterarrivalTime false

vector 0 slottedNetwork.ch wholeResponseTime:vector ETV
attr source wholeResponseTimeSignal
vector 1 slottedNetwork.ch throughput:vector ETV
attr source throughputSignal
vector 2 slottedNetwork.transmitters[0] numPacketOnBuffer:vector ETV
attr source numPacketOnBufferSignal
vector 3 slottedNetwork.transmitters[4] numPacketOnBuffer:vector ETV
attr source numPacketOnBufferSignal
vector 4 slottedNetwork.ch collisions:vector ETV
attr source collisionSignal
vector 5 slottedNetwork.transmitters[2] numPacketOnBuffer:vector ETV
attr source numPacketOnBufferSignal
vector 6 slottedNetwork.transmitters[3] numPacketOnBuffer:vector ETV
attr source numPacketOnBufferSignal
vector 7 slottedNetwork.transmitters[1] numPacketOnBuffer:vector ETV
attr source numPacketOnBufferSignal
0	17312	10	2.609400602825
0	17312	10	1.380134578054
0	17332	10.01	2.206896289171
0	17356	10.025	2.187578189025
0	17368	10.03	1.38055108997
0	17378	10.035	1.302996491159
0	17378	10.035	2.192185692993
0	17422	10.065	2.655822211467
0	17431	10.07	2.940670400804
0	17442	10.075	2.215157311041
0	17451	10.08	2.205759236719
0	17451	10.08	1.338123358857
0	17469	10.09	1.338608586374
0	17469	10.09	2.206812919911
0	17495	10.105	1.736943674792
0	17503	10.11	2.699623781477
0	17511	10.115	2.185548278746
0	17522	10.12	2.183454526182
0	17522	10.12	1.743279499564
0	17522	10.12	1.36086353301
0	17533	10.125	1.354809778712
0	17547	10.13	1.326914422917
0	17547	10.13	2.191495781155
0	17556	10.135	3.003959428919
0	17567	10.14	2.188435050071
0	17577	10.145	1.320362882235
0	17585	10.15	1.741893232777
0	17601	10.16	1.295672150046
0	17617	10.17	2.215588533638
0	17636	10.18	3.030933118809
0	17636	10.18	2.204592696103
0	17684	10.21	1.759390134545
0	17684	10.21	2.166142113721
0	17695	10.215	1.742993904009
0	17711	10.225	1.741303302077
0	17720	10.23	1.332387041285
0	17720	10.23	2.797610820519
0	17747	10.245	2.193936784523
0	17768	10.26	2.202581667955
0	17778	10.265	1.356116796019
0	17788	10.27	3.083812766958
0	17797	10.275	2.201069820598
0	17826	10.295	1.371562269691
0	17840	10.305	2.217950809496
0	17848	10.31	1.815254972355
0	17857	10.315	3.11871894428
0	17871	10.325	1.796838446386
0	17880	10.33	1.773028170902
0	17880	10.33	3.119534741288
0	17897	10.34	1.778158018489
0	17897	10.34	2.241104270021
0	17909	10.345	2.223441738091
0	17918	10.35	1.741573368894
0	17944	10.365	2.166281809619
0	17944	10.365	2.927692803303
0	17973	10.38	1.446725209767
0	17973	10.38	2.172769854831
0	17982	10.385	2.171799640845
0	17990	10.39	1.44185330337
0	18008	10.4	1.7273753009
0	18008	10.4	3.180557349217
0	18008	10.4	1.449630444311
0	18019	10.405	1.680676243021
0	18028	10.41	1.663545821905
0	18028	10.41	2.95106407683
0	18037	10.415	1.653741451806
0	18046	10.42	3.198732035621
0	18054	10.425	2.200342776769
0	18064	10.43	2.876972056992
0	18082	10.44	1.669886486454
0	18082	10.44	3.18071013793
0	18099	10.45	3.139491688091
0	18108	10.455	2.197956360171
0	18119	10.46	1.594272245043
0	18119	10.46	3.1138884127
0	18129	10.465	1.546555557996
0	18138	10.47	1.502392621263
0	18138	10.47	2.903542463565
0	18148	10.475	1.439940545189
0	18164	10.485	2.22629123174
0	18190	10.5	2.239649652111
0	18199	10.505	2.23881180946
0	18210	10.51	1.590398320348
0	18210	10.51	2.935770161987
0	18237	10.525	2.256502121491
0	18256	10.535	3.163183279743
0	18273	10.545	1.608740048447
0	18296	10.56	1.606565157549
0	18306	10.565	1.524001406616
0	18306	10.565	2.938299701273
0	18316	10.57	2.9175016837
0	18316	10.57	3.194646977118
0	18333	10.58	1.531317224797
0	18333	10.58	2.917261004698
0	18344	10.585	2.293455140034
0	18354	10.59	2.294178844558
0	18354	10.59	1.489124968219
0	18364	10.595	1.626494884849
0	18382	10.605	2.304845406527
0	18382	10.605	2.889112740449
0	18397	10.615	2.304376422721
0	18414	10.625	3.244052257815
0	18432	10.635	2.29189643941
0	18450	10.645	3.246010789123
0	18450	10.645	2.917292901831
0	18480	10.66	3.257889267677
0	18492	10.665	3.250303614791
0	18492	10.665	1.67179116852
0	18492	10.665	1.561045383912
0	18505	10.67	1.561552607431
0	18505	10.67	2.306676686253
0	18520	10.68	2.867649379258
0	18534	10.69	3.240960633174
0	18544	10.695	1.688960958989
0	18544	10.695	2.850697221911
0	18561	10.705	2.339590485814
0	18573	10.71	3.207555785016
0	18573	10.71	1.567072223663
0	18573	10.71	2.859944077707
0	18583	10.715	2.348325280581
0	18604	10.725	2.828458913397
0	18620	10.735	3.191981034589
0	18628	10.74	2.840757761725
0	18650	10.755	1.579389939038
0	18660	10.76	1.74463046578
0	18670	10.765	1.708001597596
0	18670	10.765	3.155205410251
0	18670	10.765	2.380124708506
0	18689	10.775	1.59024406806
0	18697	10.78	2.788107995792
0	18714	10.79	1.699206045444
0	18722	10.795	2.409304569638
0	18730	10.8	1.503061607779
0	18739	10.805	1.709385470724
0	18751	10.81	3.190628708574
0	18751	10.81	1.506067687719
0	18760	10.815	3.146693248768
0	18769	10.82	1.432978634559
0	18782	10.825	1.370663637867
0	18782	10.825	2.424052799856
0	18782	10.825	2.73998613644
0	18793	10.83	2.715451001475
0	18821	10.85	1.38309082745
0	18837	10.86	1.732111403084
0	18837	10.86	2.71458715473
0	18854	10.87	3.164437021601
0	18854	10.87	1.308215019107
0	18854	10.87	2.66762941116
0	18865	10.875	2.430507449319
0	18873	10.88	3.161486295173
0	18903	10.9	1.308038240084
0	18938	10.925	2.6707631016
0	18948	10.93	2.675749448601
0	18948	10.93	2.452467696664
0	18959	10.935	2.67615010001
0	18959	10.935	3.160059116632
0	18968	10.94	3.13690779669
0	19000	10.96	1.36223060598
0	19000	10.96	2.693475665446
0	19010	10.965	2.457121182587
0	19018	10.97	2.697411191474
0	19035	10.98	1.365879516917
0	19035	10.98	2.666810930379
0	19054	10.99	1.763696249839
0	19071	11	3.192368316248
0	19079	11.005	3.133348468379
0	19087	11.01	1.360830093242
0	19096	11.015	2.506992025434
0	19105	11.02	2.507732591467
0	19105	11.02	2.703738035675
0	19116	11.025	1.780485900454
0	19116	11.025	3.139430901777
0	19127	11.03	2.488115437701
0	19149	11.045	2.701522631349
0	19166	11.055	1.399615230135
0	19176	11.06	1.380234504074
0	19184	11.065	2.679747966969
0	19193	11.07	1.380507002614
0	19202	11.075	2.676211154627
0	19211	11.08	2.67646386069
0	19211	11.08	3.151832611667
0	19220	11.085	3.147765333262
0	19234	11.095	2.552248820137
0	19245	11.1	3.161834180954
0	19253	11.105	1.859172748195
0	19261	11.11	1.416886599252
0	19271	11.115	2.541262641167
0	19271	11.115	2.708628742635
0	19281	11.12	2.68601757251
0	19297	11.13	1.353012489768
0	19312	11.14	1.34536618989
0	19336	11.155	1.85131587573
0	19345	11.16	3.208014197616
0	19345	11.16	1.359873096252
0	19354	11.165	2.574744763832
0	19370	11.175	2.684317812739
0	19379	11.18	1.364136648719
0	19387	11.185	2.604101437316
0	19405	11.195	3.190471858014
0	19414	11.2	2.605965003171
0	19424	11.205	2.607549781679
0	19434	11.21	3.138058486666
0	19463	11.23	3.092487848619
0	19463	11.23	2.631261158485
0	19475	11.235	1.399998636873
0	19492	11.245	2.636431820305
0	19510	11.255	2.621516588326
0	19519	11.26	1.955332869482
0	19519	11.26	1.385927348013
0	19530	11.265	1.387262453199
0	19530	11.265	2.641974459646
0	19539	11.27	1.928250614524
0	19567	11.29	2.633596012394
0	19576	11.295	3.146643693881
0	19576	11.295	2.661600545078
0	19585	11.3	2.639597622297
0	19594	11.305	1.396143401229
0	19603	11.31	3.135104860974
0	19603	11.31	2.673792178062
0	19612	11.315	2.66259041907
0	19630	11.325	1.352271381485
0	19648	11.335	1.356256655791
0	19648	11.335	2.660567728638
0	19660	11.34	1.347904256092
0	19660	11.34	2.640174911812
0	19671	11.345	1.339499276339
0	19671	11.345	3.142521728406
0	19687	11.355	2.012153797575
0	19695	11.36	3.15088435234
0	19703	11.365	2.654052450087
0	19733	11.385	3.152258902575
0	19752	11.395	2.041775137713
0	19752	11.395	3.133924196068
0	19761	11.4	1.361123199231
0	19771	11.405	1.359632984739
0	19779	11.41	2.693922379629
0	19788	11.415	1.341369483986
0	19812	11.43	2.694904464583
0	19829	11.44	2.08414854189
0	19851	11.455	2.077186154628
0	19872	11.47	3.198217745348
0	19889	11.48	2.059313077025
0	19889	11.48	1.390221185147
0	19900	11.485	2.060531340899
0	19900	11.485	3.181890792998
0	19911	11.49	1.369380103207
0	19921	11.495	2.020749928616
0	19921	11.495	2.827284420474
0	19930	11.5	2.016442884038
0	19940	11.505	2.72843962991
0	19965	11.52	1.394460391554
0	19973	11.525	1.381106921146
0	19990	11.535	2.859860744004
0	19990	11.535	2.757261983973
0	20001	11.54	2.847934201195
0	20001	11.54	2.024741085942
0	20001	11.54	1.374280944853
0	20013	11.545	2.795627960549
0	20013	11.545	3.218623954082
0	20022	11.55	3.175441341651
0	20034	11.555	3.145268078019
0	20034	11.555	2.791439645953
0	20053	11.565	2.739820642542
0	20063	11.57	3.140531163148
0	20073	11.575	1.369663802182
0	20121	11.605	2.047529140241
0	20133	11.61	1.996985460179
0	20133	11.61	1.366338642038
0	20133	11.61	2.755976548458
0	20146	11.615	1.983522646754
0	20146	11.615	2.804754755422
0	20163	11.625	2.802964862411
0	20173	11.63	1.340554317535
0	20173	11.63	2.739139604042
0	20204	11.65	3.198313562458
0	20204	11.65	1.313400596863
0	20228	11.665	3.200134342716
0	20228	11.665	1.311546391126
0	20239	11.67	2.841034776448
0	20268	11.69	2.748901888624
0	20279	11.695	3.216437625367
0	20289	11.7	2.737927556551
0	20297	11.705	2.692532119943
0	20321	11.72	2.652662943723
0	20343	11.735	3.238314539459
0	20353	11.74	2.669463695101
0	20365	11.745	3.196862260018
0	20381	11.755	1.398083345073
0	20390	11.76	1.387142552092
0	20390	11.76	2.679284265588
0	20417	11.775	2.120359223991
0	20417	11.775	3.172746580626
0	20441	11.79	3.118584576425
0	20467	11.805	2.965474690213
0	20475	11.81	2.152218965257
0	20484	11.815	1.358385924449
0	20484	11.815	2.947815863589
0	20494	11.82	2.712367799367
0	20502	11.825	2.954001459886
0	20513	11.83	2.133822343613
0	20513	11.83	3.152974396337
0	20530	11.84	1.382260562428
0	20544	11.85	2.684836465216
0	20553	11.855	2.668255251609
0	20563	11.86	2.146929785719
0	20592	11.88	3.167218912631
0	20607	11.89	2.869845567392
0	20621	11.9	3.156366911963
0	20639	11.91	2.188713234277
0	20639	11.91	2.687850414597
0	20639	11.91	2.859972364058
0	20651	11.915	2.135495087097
0	20661	11.92	3.170660746383
0	20677	11.93	2.139061139311
0	20677	11.93	1.468437106509
0	20686	11.935	1.454251008433
0	20696	11.94	2.884552613414
0	20706	11.945	3.155871193556
0	20722	11.955	3.160610770975
0	20738	11.965	2.846859555032
0	20747	11.97	2.140072357268
0	20806	12.01	2.890395583824
0	20816	12.015	2.772338725399
0	20838	12.03	1.534180660824
0	20846	12.035	2.775750683276
0	20856	12.04	2.778003113896
0	20856	12.04	1.511673742588
0	20878	12.055	2.769176778242
0	20887	12.06	2.228108001594
0	20887	12.06	1.444662957079
0	20905	12.07	2.193978957105
0	20918	12.075	3.272051560653
0	20918	12.075	1.439248923802
0	20918	12.075	2.756849979795
0	20942	12.09	2.953198714537
0	20951	12.095	3.273656727478
0	20967	12.105	1.440336404648
0	20967	12.105	2.965912748336
0	20980	12.11	1.361154446843
0	20980	12.11	3.250896607011
0	21007	12.125	2.80073855748
0	21016	12.13	1.377766751152
0	21034	12.14	2.988700516176
0	21050	12.15	2.767373851928
0	21058	12.155	3.212969922568
0	21066	12.16	2.987803576988
0	21074	12.165	2.981335193455
0	21084	12.17	2.975858423366
0	21092	12.175	2.78513295948
0	21100	12.18	2.976415580728
0	21125	12.195	2.28680040446
0	21135	12.2	3.25324545965
0	21145	12.205	2.928928114386
0	21168	12.22	1.464884180556
0	21176	12.225	2.831042474142
0	21187	12.23	2.299458107166
0	21187	12.23	1.462197226456
0	21187	12.23	2.910086513953
0	21208	12.24	3.268978815954
0	21228	12.25	1.461504680912
0	21237	12.255	1.43372704432
0	21237	12.255	2.928290925978
0	21247	12.26	3.252969025829
0	21256	12.265	1.436746643363
0	21256	12.265	2.912440780409
0	21280	12.28	1.297391716539
0	21318	12.3	3.279493038116
0	21318	12.3	2.91493963018
0	21333	12.31	2.916087410178
0	21354	12.325	1.33975070965
0	21369	12.335	3.303792909355
0	21379	12.34	3.293232958746
0	21379	12.34	2.398264400297
0	21409	12.36	3.311702472943
0	21417	12.365	1.344178353113
0	21427	12.37	2.852036591556
0	21436	12.375	3.305279395406
0	21445	12.38	1.281343286101
0	21445	12.38	2.831427015656
0	21455	12.385	1.249194794013
0	21469	12.395	2.991020568801
0	21477	12.4	3.261192484391
0	21485	12.405	2.765359273456
0	21499	12.415	1.260898118025
0	21515	12.425	3.016526466597
0	21515	12.425	2.73030256232
0	21546	12.445	2.451510841843
0	21556	12.45	2.456204695872
0	21556	12.45	3.308656864806
0	21574	12.46	1.28459783109
0	21582	12.465	3.273876473794
0	21592	12.47	2.758829848649
0	21600	12.475	3.262541706639
0	21613	12.48	2.485390179532
0	21613	12.48	1.288006639209
0	21613	12.48	3.029492356716
0	21648	12.5	3.018912613202
0	21675	12.515	1.317155213052
0	21700	12.53	3.29076783048
0	21712	12.535	1.326085465001
0	21721	12.54	3.041395837148
0	21729	12.545	3.284976756662
0	21754	12.56	3.279754664447
0	21772	12.57	2.565644373369
0	21772	12.57	2.856952319377
0	21781	12.575	3.261869602133
0	21797	12.585	3.073959087712
0	21797	12.585	2.870160013926
0	21815	12.595	3.248073430711
0	21839	12.61	2.587970169268
0	21839	12.61	1.375465383878
0	21850	12.615	2.590400618467
0	21850	12.615	2.847325056819
0	21872	12.63	3.079400571455
0	21880	12.635	1.304872244536
0	21889	12.64	2.612257946248
0	21912	12.655	2.872644922537
0	21926	12.665	1.179581885126
0	21942	12.675	1.156981647801
0	21942	12.675	2.678619466054
0	21952	12.68	2.651218893278
0	21952	12.68	3.037586581824
0	21963	12.685	3.025476108285
0	21963	12.685	3.327946599981
0	21975	12.69	3.027520703409
0	21985	12.695	2.697046104007
0	21993	12.7	3.326809605705
0	22015	12.715	3.306477860323
0	22026	12.72	3.040608956412
0	22036	12.725	3.298495441016
0	22045	12.73	3.297046810284
0	22060	12.74	3.296365619876
0	22068	12.745	3.299582194716
0	22099	12.765	1.208325451712
0	22111	12.77	2.765526025101
0	22120	12.775	2.740796823238
0	22120	12.775	3.04748556047
0	22129	12.78	1.210678428443
0	22139	12.785	3.332634368546
0	22139	12.785	2.734462736558
0	22155	12.795	3.034302486158
0	22163	12.8	2.701536677461
0	22179	12.81	2.979314416946
0	22187	12.815	2.741996537691
0	22195	12.82	1.244449956064
0	22204	12.825	1.218810631016
0	22219	12.835	3.349802209662
0	22246	12.855	2.736807373317
0	22246	12.855	3.357344989232
0	22256	12.86	2.688900277116
0	22256	12.86	3.020743423799
0	22265	12.865	3.003388424044
0	22286	12.88	1.263692834384
0	22314	12.9	3.392109006415
0	22322	12.905	2.718647769561
0	22331	12.91	1.215847730338
0	22348	12.92	1.224291924907
0	22348	12.92	2.994702142772
0	22373	12.935	1.182175196433
0	22390	12.945	1.145982530925
0	22390	12.945	3.002752504729
0	22406	12.955	2.987938276783
0	22414	12.96	2.978672707833
0	22429	12.97	2.951797249969
0	22439	12.975	2.950249760204
0	22448	12.98	2.9067436708
0	22466	12.99	2.947163610202
0	22475	12.995	1.191852317187
0	22490	13.005	2.805388402939
0	22507	13.015	1.187863192724
0	22507	13.015	2.949997306837
0	22525	13.025	2.940341376657
0	22553	13.04	2.911769020838
0	22570	13.05	2.849190355012
0	22581	13.055	2.83738326472
0	22581	13.055	2.925990497502
0	22602	13.065	2.92963709968
0	22618	13.075	1.217985367855
0	22629	13.08	1.200376473017
0	22629	13.08	2.82739977566
0	22638	13.085	3.544581190468
0	22654	13.095	1.211734973063
0	22664	13.1	3.553444453414
0	22687	13.115	2.976319123934
0	22703	13.125	1.209389020398
0	22703	13.125	2.980001864511
0	22714	13.13	2.851884713544
0	22723	13.135	2.970598785071
0	22733	13.14	2.967122839379
0	22747	13.15	2.805015728698
0	22793	13.18	3.006300557634
0	22803	13.185	3.010771241838
0	22811	13.19	3.038558259897
0	22819	13.195	2.990791849437
0	22828	13.2	3.643842664122
0	22846	13.21	3.649413553849
0	22854	13.215	2.86340411465
0	22875	13.23	2.874959988561
0	22890	13.24	2.874177905257
0	22890	13.24	3.670821669224
0	22900	13.245	2.877414846142
0	22900	13.245	3.090715809186
0	22918	13.255	3.68086663621
0	22930	13.26	3.671336453632
0	22930	13.26	2.820421251609
0	22966	13.285	2.925106045238
0	22974	13.29	1.309500317747
0	23001	13.305	2.85046581724
0	23001	13.305	1.293821686308
0	23010	13.31	3.710739145124
0	23026	13.32	3.693401160695
0	23038	13.325	3.650364812295
0	23038	13.325	3.120043635259
0	23059	13.34	3.128061437709
0	23068	13.345	3.65500780533
0	23080	13.35	3.650494562578
0	23080	13.35	2.876812192315
0	23080	13.35	3.115854335155
0	23091	13.355	3.622777183585
0	23113	13.37	3.627614869396
0	23122	13.375	3.134130071946
0	23141	13.385	3.637760094926
0	23179	13.41	3.575030979697
0	23179	13.41	1.36708835298
0	23209	13.43	3.585964604371
0	23209	13.43	3.164907561874
0	23219	13.435	3.163410513072
0	23227	13.44	3.577874810169
0	23236	13.445	2.962290538456
0	23244	13.45	1.346483409128
0	23253	13.455	3.592631547521
0	23264	13.46	3.092823833153
0	23292	13.475	3.571728804006
0	23310	13.485	2.977655782342
0	23310	13.485	3.209815229202
0	23320	13.49	3.12093542163
0	23334	13.5	3.576251190421
0	23342	13.505	2.98069279363
0	23362	13.52	3.125081140661
0	23377	13.53	1.398901463174
0	23386	13.535	3.222157162645
0	23396	13.54	3.199382828986
0	23396	13.54	3.113311487677
0	23407	13.545	3.01065843675
0	23423	13.555	3.120972927593
0	23446	13.57	3.177138481794
0	23456	13.575	3.040309385044
0	23466	13.58	3.044969365644
0	23466	13.58	3.082454341664
0	23477	13.585	1.382638907928
0	23487	13.59	2.994306226666
0	23487	13.59	3.636148161418
0	23496	13.595	1.350423492343
0	23504	13.6	1.355188007179
0	23520	13.61	3.20990599859
0	23530	13.615	3.016034653272
0	23546	13.625	3.12684003802
0	23555	13.63	3.214949868206
0	23572	13.64	1.393879152502
0	23595	13.655	1.406178663852
0	23607	13.66	3.661256737947
0	23640	13.68	1.406513468612
0	23656	13.69	3.184082022652
0	23656	13.69	3.264180570379
0	23679	13.705	3.074640431727
0	23710	13.725	3.2906780808
0	23724	13.735	1.444061833235
0	23743	13.745	3.10812980499
0	23743	13.745	3.212684250169
0	23754	13.75	3.11299670003
0	23765	13.755	1.426963146559
0	23773	13.76	3.104311233142
0	23783	13.765	3.230971733124
0	23792	13.77	3.069680880202
0	23792	13.77	3.72394195472
0	23803	13.775	3.070558211303
0	23812	13.78	1.433900679842
0	23820	13.785	3.342970642018
0	23829	13.79	1.443883385103
0	23848	13.8	1.330999147701
0	23848	13.8	3.354566727684
0	23876	13.815	3.273253088925
0	23890	13.825	1.35504272507
0	23899	13.83	3.124791364411
0	23899	13.83	3.726883190595
0	23910	13.835	3.129774753505
0	23926	13.845	3.079555934988
0	23936	13.85	3.294902505407
0	23936	13.85	3.351589978864
0	23948	13.855	3.292505825227
0	23948	13.855	3.34253191824
0	23948	13.855	1.37990347985
0	23960	13.86	3.282450617876
0	23960	13.86	3.336948658089
0	23969	13.865	3.760758898897
0	23977	13.87	1.358026303668
0	23988	13.875	3.335824262147
0	23997	13.88	3.295826314483
0	24006	13.885	3.291526914272
0	24006	13.885	3.329295020044
0	24015	13.89	3.088872900871
0	24037	13.905	3.779420607138
0	24037	13.905	1.38018522277
0	24047	13.91	3.781342069465
0	24056	13.915	1.365212528522
0	24056	13.915	3.282364169142
0	24066	13.92	3.273804676799
0	24066	13.92	3.113516877826
0	24077	13.925	3.278519174635
0	24077	13.925	3.789336782512
0	24098	13.935	1.379604217211
0	24098	13.935	3.351038999071
0	24107	13.94	1.374297982862
0	24122	13.95	3.130832811424
0	24142	13.965	3.128584597129
0	24154	13.97	3.757534566506
0	24154	13.97	1.383240154913
0	24165	13.975	3.755955544091
0	24180	13.985	3.318553453874
0	24180	13.985	3.39544047506
0	24193	13.99	3.754116524329
0	24234	14.02	1.426250488537
0	24243	14.025	3.139230429871
0	24260	14.035	3.342220063535
0	24269	14.04	3.32161569406
0	24269	14.04	1.439706445795
0	24279	14.045	3.775042191037
0	24295	14.055	3.139059704339
0	24295	14.055	3.71086828286
0	24308	14.06	3.340906170341
0	24321	14.065	3.141813368449
0	24321	14.065	3.409145709425
0	24344	14.08	3.352751650403
0	24344	14.08	3.421971579983
0	24354	14.085	3.301188880308
0	24354	14.085	3.425403990677
0	24372	14.095	3.745743408509
0	24381	14.1	3.158224606266
0	24381	14.1	3.290684878774
0	24391	14.105	3.124579451043
0	24407	14.115	3.131945363734
0	24419	14.12	3.127380966882
0	24419	14.12	3.459093340206
0	24444	14.135	3.123719855069
0	24444	14.135	3.415291943079
0	24455	14.14	3.415164018691
0	24455	14.14	3.653835437224
0	24484	14.155	3.658967942244
0	24494	14.16	3.430022290692
0	24517	14.175	3.415620797512
0	24539	14.19	3.685044301337
0	24539	14.19	3.343448894521
0	24557	14.2	3.103397023502
0	24557	14.2	3.325647672362
0	24557	14.2	3.432935593758
0	24568	14.205	3.276841034048
0	24568	14.205	1.603226740851
0	24584	14.215	3.704480410413
0	24593	14.22	3.071040337313
0	24602	14.225	3.292545100178
0	24602	14.225	3.365618750728
0	24614	14.23	3.346582823081
0	24614	14.23	2.994060482365
0	24653	14.255	3.370486476289
0	24683	14.275	3.716505474796
0	24692	14.28	1.639457448891
0	24703	14.285	1.631868080154
0	24714	14.29	1.524048447256
0	24714	14.29	3.053165655905
0	24714	14.29	3.393007182454
0	24724	14.295	3.351612503777
0	24739	14.305	3.35840878913
0	24753	14.315	3.27809542555
0	24761	14.32	3.073099481788
0	24772	14.325	3.723113763558
0	24772	14.325	3.363303840795
0	24782	14.33	3.333151502868
0	24782	14.33	1.528557988901
0	24793	14.335	1.456004724547
0	24793	14.335	3.045729446174
0	24803	14.34	1.411566176073
0	24821	14.35	3.731699397496
0	24821	14.35	3.352721310539
0	24852	14.37	3.749294110142
0	24862	14.375	3.058120440181
0	24862	14.375	3.327081781046
0	24872	14.38	3.056085296822
0	24887	14.39	3.738779013346
0	24896	14.395	3.046172723311
0	24905	14.4	1.457513344525
0	24915	14.405	3.348309139253
0	24933	14.415	3.745882852163
0	24933	14.415	3.317128239177
0	24944	14.42	3.02777597879
0	24962	14.43	3.001947964242
0	24962	14.43	3.711907499151
0	24972	14.435	3.407263491135
0	24981	14.44	3.23695382367
0	24991	14.445	3.655867475255
0	25001	14.45	2.943788748141
0	25001	14.45	1.506603417278
0	25001	14.45	3.235189711765
0	25011	14.455	3.647482919196
0	25021	14.46	3.213717311636
0	25030	14.465	3.434129519569
0	25042	14.47	2.962004557876
0	25052	14.475	3.654204981218
0	25062	14.48	2.969142689641
0	25062	14.48	3.429030955375
0	25072	14.485	3.660406559753
0	25094	14.5	3.589868141099
0	25094	14.5	1.531211667471
0	25104	14.505	2.922462537823
0	25104	14.505	3.252948515712
0	25115	14.51	3.237842003267
0	25115	14.51	1.538636030766
0	25115	14.51	3.392801157279
0	25126	14.515	3.543740120057
0	25137	14.52	2.936840435782
0	25146	14.525	2.930546880627
0	25168	14.54	3.368986086788
0	25198	14.56	3.587139032105
0	25207	14.565	3.245110741018
0	25222	14.575	1.596077605854
0	25222	14.575	3.252182720042
0	25232	14.58	3.553063702129
0	25241	14.585	2.986206083782
0	25251	14.59	3.539197135424
0	25260	14.595	3.409568362911
0	25269	14.6	3.40890224495
0	25269	14.6	2.994653409569
0	25285	14.61	3.405128945586
0	25295	14.615	1.597511093277
0	25295	14.615	3.28656985724
0	25315	14.625	3.011829813226
0	25315	14.625	3.56645630478
0	25354	14.65	3.319623652099
0	25369	14.66	2.979531838868
0	25369	14.66	3.593728362525
0	25380	14.665	3.594263386448
0	25389	14.67	2.986786722692
0	25398	14.675	2.991653492315
0	25408	14.68	2.971526696408
0	25408	14.68	3.33834061246
0	25426	14.69	1.652412456786
0	25441	14.7	1.654649065594
0	25455	14.71	3.257999234855
0	25470	14.72	1.666010022176
0	25497	14.735	3.022287280406
0	25497	14.735	3.620235547857
0	25514	14.745	3.018409029276
0	25538	14.76	2.977604193211
0	25550	14.765	2.973717528208
0	25574	14.78	3.306603951849
0	25588	14.79	2.986425439579
0	25599	14.795	1.639161010865
0	25616	14.805	3.651993361991
0	25616	14.805	3.59566021925
0	25625	14.81	1.653712800006
0	25635	14.815	3.334185282204
0	25674	14.84	3.616103335971
0	25690	14.85	1.666703103054
0	25704	14.86	3.372429729716
0	25714	14.865	3.362557075524
0	25730	14.875	3.049247949352
0	25730	14.875	3.720284403117
0	25756	14.89	3.033815961617
0	25767	14.895	3.724298328282
0	25767	14.895	1.6482265503
0	25780	14.9	3.036160722435
0	25788	14.905	3.389654957382
0	25796	14.91	1.569177437154
0	25818	14.925	1.547527159818
0	25818	14.925	3.39720232984
0	25827	14.93	2.993819723146
0	25855	14.95	2.955119763081
0	25870	14.96	1.577946035699
0	25885	14.97	3.435951722701
0	25893	14.975	3.788967065244
0	25924	14.995	3.443795043763
0	25983	15.035	1.609810235081
0	25992	15.04	3.808480936113
0	26000	15.045	3.812030350334
0	26010	15.05	3.496092986081
0	26022	15.055	3.81249976464
0	26022	15.055	3.803573472111
0	26032	15.06	3.758326627811
0	26059	15.075	1.612546890225
0	26059	15.075	3.516086662208
0	26059	15.075	3.814399100164
0	26072	15.08	3.516539933656
0	26083	15.085	1.611346453296
0	26099	15.095	3.056250795838
0	26111	15.1	1.61587874771
0	26111	15.1	3.734782842402
0	26121	15.105	3.716667019408
0	26121	15.105	3.038176930666
0	26131	15.11	3.539662875812
0	26142	15.115	1.625127717927
0	26159	15.125	3.050091188781
0	26159	15.125	1.584854686125
0	26168	15.13	3.738242274619
0	26177	15.135	1.593171219379
0	26186	15.14	3.065089674486
0	26215	15.16	3.57889723816
0	26247	15.18	3.093143057251
0	26255	15.185	3.801311123334
0	26264	15.19	3.77636398498
0	26281	15.2	3.092592928734
0	26281	15.2	3.808256864163
0	26298	15.21	3.081058918321
0	26306	15.215	3.597195115339
0	26316	15.22	3.563337824853
0	26316	15.22	3.800819393747
0	26327	15.225	3.086835604452
0	26327	15.225	3.821765788462
0	26337	15.23	3.826714119316
0	26337	15.23	3.518748184442
0	26347	15.235	3.801950299397
0	26358	15.24	3.525582665
0	26358	15.24	3.807525245453
0	26374	15.25	3.057044963226
0	26374	15.25	1.688061100017
0	26383	15.255	1.691921226453
0	26399	15.265	3.061494078547
0	26399	15.265	3.821921915658
0	26408	15.27	3.801492183339
0	26420	15.275	3.034351259356
0	26420	15.275	1.704689138828
0	26420	15.275	3.537949906455
0	26420	15.275	3.838037528053
0	26431	15.28	3.540216293617
0	26442	15.285	3.808249720341
0	26459	15.295	1.714898148799
0	26469	15.3	1.699487726438
0	26479	15.305	1.702360184436
0	26479	15.305	3.811983161625
0	26504	15.32	3.038151493454
0	26504	15.32	1.704570848007
0	26513	15.325	1.703316657274
0	26524	15.33	1.695509341097
0	26524	15.33	3.046580867654
0	26533	15.335	3.784422416718
0	26559	15.35	3.789525781155
0	26559	15.35	1.696755038911
0	26559	15.35	3.846984235615
0	26569	15.355	3.812757464433
0	26588	15.365	3.796429238471
0	26588	15.365	1.645992263036
0	26625	15.39	1.644996133497
0	26633	15.395	3.05733656913
0	26642	15.4	2.961555450198
0	26650	15.405	3.664357418438
0	26660	15.41	3.668900865951
0	26660	15.41	1.664623852109
0	26660	15.41	3.838978770329
0	26672	15.415	1.660853264857
0	26672	15.415	3.813057713752
0	26682	15.42	2.966766001105
0	26692	15.425	3.797185478
0	26702	15.43	3.79267042605
0	26702	15.43	3.843781384125
0	26702	15.43	1.652074602016
0	26712	15.435	2.929448088072
0	26721	15.44	1.640530124792
0	26733	15.445	1.613226755347
0	26733	15.445	3.833654228554
0	26733	15.445	3.697597566277
0	26754	15.455	3.711738046539
0	26754	15.455	3.693300797152
0	26777	15.47	1.635443058897
0	26801	15.485	2.9785423315
0	26801	15.485	3.833386310585
0	26810	15.49	3.794552842982
0	26820	15.495	3.764792040745
0	26820	15.495	2.961261558585
0	26844	15.51	3.730445083452
0	26871	15.525	3.723228158716
0	26882	15.53	3.711576621168
0	26882	15.53	3.743360387198
0	26891	15.535	1.664002588941
0	26899	15.54	3.736350140885
0	26908	15.545	3.707720584754
0	26916	15.55	1.659406493225
0	26925	15.555	3.813836348488
0	26935	15.56	1.590817753636
0	26945	15.565	3.801510676249
0	26945	15.565	3.643424815948
0	26955	15.57	1.568374305058
0	26971	15.58	1.574387682745
0	26979	15.585	3.025276841359
0	26989	15.59	3.685485100044
0	26999	15.595	3.820227244583
0	27007	15.6	3.760980155683
0	27017	15.605	1.549085337065
0	27017	15.605	3.656109141049
0	27026	15.61	3.623323047103
0	27041	15.62	3.768641244717
0	27052	15.625	3.75062664914
0	27052	15.625	1.561070020631
0	27077	15.64	3.646210276309
0	27100	15.655	3.634997970871
0	27108	15.66	3.752238020783
0	27127	15.67	3.640232370839
0	27144	15.68	3.0982230895
0	27152	15.685	3.085282957255
0	27160	15.69	3.617891391783
0	27168	15.695	3.779054161634
0	27185	15.705	3.749159137707
0	27185	15.705	1.640069715075
0	27185	15.705	3.621359405211
0	27195	15.71	3.098975139988
0	27209	15.72	3.752708236598
0	27217	15.725	3.615312357739
0	27229	15.73	3.715492412687
0	27285	15.77	3.622755372542
0	27295	15.775	3.578547011538
0	27303	15.78	3.094848405887
0	27313	15.785	1.668417551857
0	27313	15.785	3.848637209604
0	27324	15.79	3.103977254721
0	27324	15.79	3.573648167313
0	27335	15.795	1.652488254787
0	27351	15.805	3.740083389715
0	27361	15.81	3.717123941046
0	27390	15.83	3.709187536004
0	27410	15.84	3.706449275071
0	27421	15.845	3.700950507289
0	27421	15.845	3.894887025502
0	27431	15.85	3.89433995005
0	27441	15.855	3.598277497451
0	27452	15.86	3.857014579214
0	27460	15.865	3.79624562506
0	27470	15.87	3.180812170207
0	27487	15.88	3.712814103383
0	27487	15.88	1.73288591292
0	27487	15.88	3.585049441594
0	27505	15.89	1.722580145051
0	27514	15.895	3.16612693866
0	27530	15.905	3.142856385218
0	27530	15.905	3.608609205324
0	27539	15.91	1.716883262557
0	27563	15.925	3.815713459993
0	27580	15.935	3.165349783234
0	27580	15.935	1.705799078173
0	27597	15.945	3.158020033444
0	27607	15.95	3.632643737722
0	27630	15.965	3.84726654557
0	27638	15.97	3.04135164453
0	27655	15.98	2.987545372775
0	27655	15.98	3.786353358173
0	27673	15.99	2.99335295906
0	27673	15.99	3.570781456521
0	27682	15.995	3.785906567705
0	27691	16	3.788311125962
0	27700	16.005	3.578769765584
0	27709	16.01	3.576222256889
0	27709	16.01	1.776556097426
0	27719	16.015	3.5659002325
0	27719	16.015	3.777263503617
0	27730	16.02	3.014412818847
0	27738	16.025	3.004879493111
0	27769	16.045	3.806212211024
0	27786	16.055	1.766984187906
0	27796	16.06	3.033414411367
0	27804	16.065	3.825410115511
0	27825	16.075	3.956775186641
0	27851	16.09	3.047385063968
0	27887	16.115	1.710916234115
0	27887	16.115	3.992901828749
0	27898	16.12	3.838032356658
0	27922	16.135	1.727661079474
0	27922	16.135	3.683413086447
0	27936	16.14	3.682721086809
0	27946	16.145	3.099686612097
0	27956	16.15	4.018938164134
0	27956	16.15	3.671835361872
0	27974	16.16	1.733874717508
0	27974	16.16	3.679069442972
0	27989	16.17	3.883379553378
0	28005	16.18	1.750326822666
0	28014	16.185	3.118897796402
0	28023	16.19	1.758234541192
0	28032	16.195	3.710971184631
0	28048	16.205	3.127223355493
0	28048	16.205	4.038687056866
0	28065	16.215	3.924364213179
0	28065	16.215	4.024405670267
0	28078	16.22	4.02053825963
0	28078	16.22	3.732225794781
0	28089	16.225	3.737109152255
0	28089	16.225	1.787866429674
0	28105	16.235	3.722621900224
0	28114	16.24	4.011674628498
0	28131	16.25	4.009491241726
0	28131	16.25	3.717341697865
0	28156	16.265	3.177164025211
0	28156	16.265	3.917267439591
0	28167	16.27	1.829006207831
0	28177	16.275	3.177510464575
0	28177	16.275	3.908742349121
0	28200	16.29	3.920585815858
0	28210	16.295	3.12416467213
0	28230	16.31	3.928610902306
0	28239	16.315	4.016673358091
0	28251	16.32	3.946297495459
0	28251	16.32	3.782704152024
0	28271	16.33	3.155032058483
0	28271	16.33	3.769193618579
0	28280	16.335	3.891678479989
0	28298	16.345	3.866269271812
0	28298	16.345	3.775160302182
0	28323	16.36	3.141661006447
0	28340	16.37	3.883011224346
0	28355	16.38	3.132505082738
0	28355	16.38	1.910089539295
0	28365	16.385	3.898114630437
0	28380	16.395	3.877791552128
0	28390	16.4	3.880549051876
0	28399	16.405	3.874530555704
0	28415	16.415	3.917049508583
0	28425	16.42	3.908221228055
0	28434	16.425	1.945574819385
0	28443	16.43	3.168216198901
0	28452	16.435	3.910938745173
0	28468	16.445	3.776842158816
0	28482	16.455	3.752214637406
0	28498	16.465	3.919006044169
0	28498	16.465	3.939320245305
0	28517	16.475	3.184924247207
0	28517	16.475	3.941172957003
0	28526	16.48	3.182979922354
0	28537	16.485	3.170145144396
0	28552	16.495	3.778702302605
0	28560	16.5	1.938924808493
0	28575	16.51	3.187870516375
0	28585	16.515	3.89729484543
0	28599	16.525	3.148938604656
0	28607	16.53	3.892036292067
0	28624	16.54	1.957835193548
0	28624	16.54	3.88587955157
0	28637	16.545	3.994906861541
0	28653	16.555	3.157814723583
0	28673	16.565	3.082853364425
0	28673	16.565	1.978731432554
0	28687	16.57	1.980911103602
0	28699	16.575	1.961233811555
0	28699	16.575	3.820668718479
0	28715	16.585	1.96245485084
0	28731	16.595	3.06949650979
0	28731	16.595	4.003978610879
0	28771	16.62	3.888092031378
0	28795	16.635	3.872939929698
0	28803	16.64	3.87850843625
0	28812	16.645	3.964800490959
0	28829	16.655	3.889010844139
0	28838	16.66	3.770366151784
0	28859	16.675	3.759586297266
0	28869	16.68	3.709921575739
0	28869	16.68	3.140668285056
0	28869	16.68	2.040453668799
0	28881	16.685	3.697487394731
0	28881	16.685	2.018699864308
0	28899	16.695	3.129242487452
0	28917	16.705	2.031627448359
0	28917	16.705	3.693294268778
0	28932	16.715	3.08811468255
0	28948	16.725	4.021998253378
0	28948	16.725	3.90148347935
0	28982	16.745	3.982148983337
0	28991	16.75	3.981755393127
0	28991	16.75	3.697958296125
0	29041	16.78	3.996356516582
0	29041	16.78	3.724596824678
0	29052	16.785	3.151505239121
0	29052	16.785	3.864559464263
0	29061	16.79	3.844114582091
0	29071	16.795	3.812358752217
0	29071	16.795	2.067607943098
0	29084	16.8	2.069077859313
0	29084	16.8	3.147845936319
0	29094	16.805	3.817460518619
0	29094	16.805	3.74386113664
0	29110	16.815	3.750097953616
0	29127	16.825	3.16606635858
0	29127	16.825	3.750063754541
0	29160	16.845	3.178153820442
0	29160	16.845	3.768753694571
0	29183	16.86	2.116431340565
0	29183	16.86	3.833015989515
0	29192	16.865	3.190691674304
0	29214	16.88	4.075046510198
0	29214	16.88	3.792969231849
0	29223	16.885	3.210005384362
0	29234	16.89	3.184638890014
0	29251	16.9	3.156649777614
0	29251	16.9	2.150279734142
0	29251	16.9	3.866574018906
0	29261	16.905	4.073178700454
0	29284	16.92	3.176631847167
0	29284	16.92	4.021543735395
0	29284	16.92	3.858466079016
0	29302	16.93	3.157642498304
0	29324	16.94	3.126084438628
0	29354	16.96	2.201045891447
0	29362	16.965	3.834412121139
0	29379	16.975	2.156424300366
0	29388	16.98	3.124138368911
0	29407	16.99	4.080421802937
0	29416	16.995	2.123168924977
0	29416	16.995	3.814078514743
0	29437	17.01	3.135580223303
0	29452	17.02	3.917097572182
0	29460	17.025	4.108343589816
0	29468	17.03	3.121938693615
0	29477	17.035	3.921774700291
0	29496	17.045	2.165473229736
0	29496	17.045	3.92036310994
0	29527	17.065	4.138884372139
0	29527	17.065	3.745592531022
0	29537	17.07	3.748019273165
0	29546	17.075	3.938300505326
0	29558	17.08	3.134599848359
0	29558	17.08	4.095563714208
0	29558	17.08	2.13109318885
0	29605	17.11	2.122193944496
0	29605	17.11	3.972673481087
0	29617	17.115	3.142631772216
0	29617	17.115	4.09610329766
0	29628	17.12	4.081204615936
0	29628	17.12	3.953009670048
0	29637	17.125	3.776842796661
0	29649	17.13	3.883670641731
0	29659	17.135	3.879957713942
0	29682	17.15	2.152558489004
0	29691	17.155	4.115664863917
0	29699	17.16	3.901559726448
0	29714	17.17	3.871885358266
0	29726	17.175	2.149725919996
0	29726	17.175	3.825754030628
0	29736	17.18	3.799645403682
0	29757	17.195	3.872620623271
0	29767	17.2	4.103825250802
0	29775	17.205	3.816651373423
0	29792	17.215	3.796507962049
0	29792	17.215	3.863534708463
0	29801	17.22	3.762166040779
0	29816	17.23	4.121296731095
0	29849	17.25	2.201337544969
0	29849	17.25	3.878614354314
0	29862	17.255	3.871000606113
0	29870	17.26	2.196713492157
0	29937	17.3	2.235751101285
0	29945	17.305	3.914762638921
0	29963	17.315	2.238280629059
0	29963	17.315	3.833318180195
0	29973	17.32	2.239136868165
0	29973	17.32	4.164663612231
0	30021	17.35	4.150212594615
0	30029	17.355	3.960594075059
0	30038	17.36	4.15757209654
0	30038	17.36	3.827341859378
0	30050	17.365	3.751356906389
0	30050	17.365	3.934929366774
0	30075	17.38	3.929947904846
0	30085	17.385	4.175688270855
0	30108	17.4	3.768360143245
0	30125	17.41	3.940948329944
0	30141	17.42	2.32279686922
0	30150	17.425	4.165231578312
0	30150	17.425	3.75681371033
0	30175	17.44	2.341305526666
0	30191	17.45	4.155903233073
0	30206	17.46	3.990002418399
0	30216	17.465	3.993030393823
0	30225	17.47	3.997671542874
0	30236	17.475	3.899244982583
0	30236	17.475	3.80134817344
0	30254	17.485	4.121442338283
0	30273	17.495	4.130061561169
0	30310	17.52	3.827348881326
0	30340	17.54	2.419905699404
0	30350	17.545	4.154297150003
0	30350	17.545	3.930446338456
0	30368	17.555	3.913040605399
0	30378	17.56	2.424359439654
0	30401	17.575	3.852737487176
0	30409	17.58	4.135641030389
0	30419	17.585	3.925785141155
0	30429	17.59	3.913283400012
0	30438	17.595	3.85680854239
0	30449	17.6	4.026750575938
0	30449	17.6	2.381113960366
0	30449	17.6	3.921085066379
0	30461	17.605	2.321023945601
0	30461	17.605	3.853457029574
0	30471	17.61	2.320643838979
0	30471	17.61	3.856549239411
0	30482	17.615	3.852514519845
0	30492	17.62	2.327285337535
0	30508	17.63	3.856517408874
0	30518	17.635	3.849630811318
0	30529	17.64	2.344308710249
0	30529	17.64	3.847877017663
0	30539	17.645	3.850920483966
0	30547	17.65	4.067652810209
0	30567	17.665	3.855087654561
0	30593	17.68	4.09322093052
0	30615	17.695	2.39822652072
0	30634	17.705	2.404178292054
0	30634	17.705	3.896665119381
0	30646	17.71	2.402717410053
0	30646	17.71	3.863713573749
0	30665	17.72	3.909096031793
0	30675	17.725	3.910971357666
0	30694	17.735	3.890197831482
0	30712	17.745	4.057160686269
0	30712	17.745	2.407656733818
0	30729	17.755	3.90173562996
0	30770	17.78	4.078548641953
0	30791	17.795	2.445264286166
0	30799	17.8	3.922538132906
0	30814	17.81	3.936869623417
0	30840	17.825	4.105348893032
0	30840	17.825	3.897783460891
0	30850	17.83	2.391440694976
0	30850	17.83	3.902554809573
0	30860	17.835	2.315379380565
0	30870	17.84	3.872883635333
0	30879	17.845	2.322075480962
0	30914	17.865	2.292971798803
0	30914	17.865	3.876181958125
0	30934	17.875	2.285569900698
0	30944	17.88	3.913144856181
0	30969	17.895	3.907062689162
0	30986	17.905	3.876548222897
0	30994	17.91	3.879360443732
0	31009	17.92	4.195722978662
0	31018	17.925	3.935247421144
0	31036	17.935	3.904017153857
0	31067	17.955	3.905869004117
0	31085	17.965	2.341738437221
0	31085	17.965	3.909661932034
0	31128	17.995	2.367665174987
0	31138	18	2.352238004469
0	31138	18	4.264010354842
0	31138	18	3.882393250298
0	31149	18.005	4.242172172383
0	31157	18.01	3.986228712362
0	31167	18.015	3.925628013144
0	31176	18.02	2.35825604844
0	31184	18.025	2.350291183531
0	31193	18.03	3.92593179365
0	31193	18.03	3.892880790564
0	31203	18.035	2.293494477807
0	31212	18.04	2.266887293441
0	31230	18.05	2.208637106982
0	31239	18.055	2.204782805098
0	31250	18.06	3.91329875543
0	31266	18.07	4.271934328411
0	31292	18.085	4.284897403252
0	31301	18.09	3.941695135617
0	31317	18.1	3.942125945375
0	31338	18.115	3.995029282548
0	31338	18.115	3.948688252121
0	31356	18.125	3.874348006972
0	31368	18.13	3.869070443011
0	31368	18.13	4.318295395137
0	31368	18.13	2.230168745816
0	31380	18.135	4.294121771393
0	31388	18.14	4.215658587679
0	31396	18.145	2.234705625519
0	31404	18.15	3.879663416675
0	31415	18.155	3.873288929138
0	31415	18.155	4.222515682495
0	31424	18.16	4.189492535836
0	31454	18.18	4.049456754652
0	31470	18.19	4.182214517931
0	31492	18.205	2.247722365126
0	31521	18.225	4.091791959147
0	31529	18.23	3.947724311921
0	31539	18.235	3.93603010648
0	31539	18.235	4.191920395386
0	31557	18.245	4.185551964643
0	31557	18.245	2.286181917608
0	31568	18.25	3.88650829301
0	31576	18.255	2.200009074406
0	31585	18.26	2.186945687055
0	31596	18.265	2.190169110809
0	31611	18.275	2.190941102104
0	31620	18.28	4.119285624397
0	31636	18.29	4.225895683346
0	31658	18.305	4.240129234286
0	31672	18.315	2.219862553183
0	31686	18.325	4.246069873862
0	31694	18.33	4.236961870135
0	31734	18.355	4.136304945395
0	31751	18.365	4.136937209635
0	31766	18.375	4.041305537097
0	31785	18.385	4.274513238687
0	31785	18.385	4.048156549965
0	31822	18.41	2.292516028467
0	31830	18.415	4.07426419758
0	31839	18.42	4.053234359088
0	31848	18.425	4.083626372612
0	31859	18.43	4.031400028578
0	31868	18.435	4.062649835753
0	31885	18.445	4.304580543687
0	31885	18.445	4.038645694626
0	31915	18.465	4.009604278309
0	31923	18.47	2.342961378516
0	31934	18.475	2.337988447562
0	31934	18.475	4.316106517699
0	31934	18.475	4.061131569323
0	31945	18.48	4.02333510704
0	31976	18.5	4.084582610724
0	31984	18.505	4.037995260531
0	31998	18.515	3.998777700446
0	32012	18.525	2.33986125911
0	32020	18.53	2.310816893582
0	32028	18.535	2.309104135375
0	32043	18.545	2.278389676706
0	32052	18.55	4.020822114252
0	32052	18.55	4.087400826059
0	32062	18.555	4.024138727344
0	32099	18.58	4.114715242907
0	32108	18.585	4.346814357941
0	32124	18.595	4.045050670671
0	32135	18.6	3.977899918348
0	32135	18.6	4.32560267096
0	32151	18.61	2.180385534555
0	32167	18.62	2.176724847463
0	32167	18.62	4.153565982431
0	32184	18.63	2.159986006149
0	32193	18.635	3.940198204905
0	32202	18.64	2.167170913528
0	32202	18.64	4.169964210065
0	32212	18.645	4.173053683874
0	32220	18.65	4.169181402452
0	32229	18.655	4.333285038239
0	32229	18.655	3.893677112167
0	32241	18.66	4.171819985542
0	32283	18.69	2.215703719142
0	32291	18.695	4.171112986023
0	32301	18.7	4.317481656365
0	32326	18.715	3.947408427928
0	32326	18.715	4.035461281037
0	32343	18.725	3.924674862875
0	32352	18.73	3.908185565254
0	32352	18.73	4.338442295123
0	32370	18.74	4.052820339169
0	32379	18.745	3.922048393799
0	32388	18.75	3.864999913563
0	32388	18.75	2.249392794897
0	32399	18.755	4.337606004005
0	32409	18.76	4.042555674234
0	32420	18.765	4.030737501151
0	32420	18.765	2.226943027802
0	32449	18.785	4.361717360757
0	32449	18.785	3.891552677915
0	32458	18.79	2.247975670251
0	32479	18.805	4.160948203126
0	32490	18.81	2.252852746332
0	32500	18.815	4.050268668749
0	32508	18.82	2.19670255744
0	32528	18.83	4.167987174502
0	32528	18.83	3.878449485784
0	32528	18.83	4.034403503095
0	32540	18.835	3.846810959578
0	32550	18.84	2.18377007986
0	32550	18.84	3.999260181904
0	32559	18.845	3.957152953671
0	32575	18.855	2.171588915633
0	32575	18.855	3.864642911538
0	32658	18.91	3.833802739182
0	32667	18.915	4.193191296323
0	32684	18.925	3.830724581341
0	32693	18.93	3.934174984083
0	32703	18.935	4.201503172918
0	32714	18.94	2.209921798851
0	32714	18.94	3.905682430505
0	32738	18.955	2.224912613409
0	32748	18.96	3.860149770861
0	32764	18.97	2.238795113344
0	32781	18.98	4.236121231748
0	32781	18.98	3.87153856321
0	32803	18.995	2.255799187103
0	32812	19	4.247738415675
0	32822	19.005	2.250297236722
0	32830	19.01	3.975272772565
0	32848	19.02	3.896269521331
0	32866	19.03	4.27499337676
0	32875	19.035	4.262313962337
0	32875	19.035	2.260829119073
0	32897	19.05	4.275367046938
0	32909	19.055	4.241051580581
0	32909	19.055	4.008724239443
0	32920	19.06	3.991759010194
0	32930	19.065	3.980688873074
0	32940	19.07	3.918766523987
0	32950	19.075	3.90729170666
0	32958	19.08	4.256568671404
0	32971	19.085	3.995820855929
0	32992	19.1	3.83734329757
0	32992	19.1	3.966451784991
0	33003	19.105	3.740072227024
0	33003	19.105	3.962272591219
0	33012	19.11	3.942016634734
0	33036	19.125	3.945289973497
0	33050	19.135	3.767024607121
0	33058	19.14	3.744518163053
0	33068	19.145	3.72950018932
0	33090	19.16	5.172358733722
0	33114	19.175	3.661109628926
0	33169	19.21	5.150284148229
0	33193	19.225	5.135030982125
0	33193	19.225	3.6721089651
0	33203	19.23	3.640258494689
0	33203	19.23	4.04317223329
0	33273	19.275	3.682070459068
0	33273	19.275	4.077255341426
0	33282	19.28	5.171091766384
0	33304	19.295	5.16667594002
0	33314	19.3	3.699063930522
0	33314	19.3	4.090374195104
0	33326	19.305	4.068560657684
0	33336	19.31	3.649347177308
0	33375	19.335	3.639379271756
0	33389	19.345	4.050903999437
0	33398	19.35	5.202135196829
0	33407	19.355	2.578627780519
0	33417	19.36	4.518616785379
0	33433	19.37	5.180450720786
0	33443	19.375	5.16125283724
0	33443	19.375	2.558163812806
0	33460	19.385	4.000517174613
0	33469	19.39	5.152227350241
0	33469	19.39	4.529922264251
0	33480	19.395	2.50536245531
0	33494	19.405	5.140876786813
0	33504	19.41	4.475342040104
0	33504	19.41	2.479501821148
0	33534	19.43	5.151813483831
0	33543	19.435	4.457823313951
0	33543	19.435	3.709742816142
0	33556	19.44	4.434501374119
0	33556	19.44	2.505347596417
0	33556	19.44	4.015761936483
0	33566	19.445	5.161195277197
0	33582	19.455	2.484931762954
0	33591	19.46	4.408217888728
0	33633	19.485	2.434649370959
0	33643	19.49	4.433939833654
0	33651	19.495	4.054133611082
0	33661	19.5	5.176661176038
0	33661	19.5	2.434418992829
0	33678	19.51	2.382600367503
0	33678	19.51	3.747088632292
0	33694	19.52	4.406848753585
0	33702	19.525	4.380191992973
0	33732	19.545	3.748588898289
0	33741	19.55	4.386236818713
0	33759	19.56	4.117969139605
0	33769	19.565	5.224018016071
0	33769	19.565	4.360740959363
0	33794	19.58	2.428537215904
0	33794	19.58	3.77427857393
0	33807	19.585	2.410517031913
0	33807	19.585	5.231403781787
0	33807	19.585	4.271448053495
0	33807	19.585	4.118266620486
0	33826	19.595	2.311198614581
0	33837	19.6	4.27164746344
0	33837	19.6	3.777028032877
0	33848	19.605	3.756207633718
0	33866	19.615	4.103531053817
0	33876	19.62	3.754481666817
0	33888	19.625	3.731732496049
0	33888	19.625	4.251298813551
0	33899	19.63	4.255457471268
0	33921	19.645	5.287370941358
0	33938	19.655	5.278111047746
0	33938	19.655	4.135069243011
0	33965	19.67	3.616483948744
0	33980	19.68	5.27511617589
0	33989	19.685	4.270460500416
0	33989	19.685	3.630399397946
0	34007	19.695	4.237591136391
0	34007	19.695	2.400845000789
0	34017	19.7	4.170528206811
0	34033	19.71	4.239620799112
0	34033	19.71	3.654890726616
0	34044	19.715	2.380234337107
0	34064	19.725	2.362695492364
0	34073	19.73	5.288255309232
0	34088	19.74	4.246633579618
0	34112	19.755	3.683460498913
0	34124	19.76	5.246592469299
0	34133	19.765	5.216881387524
0	34148	19.775	5.195794959281
0	34148	19.775	3.689148158197
0	34182	19.795	3.670412715632
0	34197	19.805	5.213165166341
0	34197	19.805	4.306157908506
0	34208	19.81	4.297835978607
0	34208	19.81	3.673813648663
0	34238	19.83	3.693316445979
0	34254	19.84	4.279091915369
0	34271	19.85	5.24502625044
0	34280	19.855	5.223253680416
0	34292	19.86	5.21294904971
0	34309	19.87	5.207495727896
0	34320	19.875	3.737273103019
0	34343	19.89	3.744818958985
0	34352	19.895	3.715031463804
0	34352	19.895	4.368037944772
0	34362	19.9	4.276133327628
0	34362	19.9	2.526180336569
0	34371	19.905	2.524067655781
0	34381	19.91	4.295876527966
0	34391	19.915	4.254104163003
0	34391	19.915	2.531166394631
0	34401	19.92	4.194953731948
0	34401	19.92	5.189099715085
0	34413	19.925	5.157179778101
0	34413	19.925	2.537871066564
0	34455	19.95	4.223036395522
0	34455	19.95	2.54201221927
0	34467	19.955	3.762479695417
0	34482	19.965	3.723932432831
0	34497	19.975	3.733194630822
0	34507	19.98	3.716016763248
0	34516	19.985	3.720145065195
0	34526	19.99	4.31256160219
0	34536	19.995	5.203299023125
0	34536	19.995	4.251155365144
0	34548	20	3.726179552488
0	34572	20.015	5.203151468769
0	34581	20.02	5.191636453519
0	34581	20.02	3.74265267244
0	34590	20.025	5.188715508518
0	34598	20.03	5.192066677487
0	34607	20.035	5.173683319605
0	34607	20.035	2.606370081807
0	34618	20.04	2.591362945116
0	34618	20.04	3.748782470776
0	34629	20.045	5.164381493505
0	34629	20.045	4.257817051557
0	34629	20.045	4.315485136146
0	34640	20.05	2.600525435822
0	34650	20.055	4.251964514471
0	34650	20.055	3.736586096716
0	34660	20.06	5.176709283583
0	34677	20.07	3.746105688112
0	34686	20.075	3.732266787112
0	34695	20.08	5.187606408944
0	34703	20.085	4.275882147435
0	34711	20.09	4.321275992793
0	34726	20.1	2.643339951316
0	34735	20.105	4.277811316142
0	34743	20.11	2.644056274867
0	34754	20.115	5.217132404734
0	34797	20.145	5.246908807831
0	34797	20.145	4.364230491662
0	34808	20.15	5.236563210362
0	34808	20.15	2.639600008882
0	34819	20.155	3.797199955192
0	34819	20.155	4.334011358806
0	34839	20.165	5.196083802155
0	34850	20.17	3.768950673175
0	34881	20.19	5.212063924339
0	34881	20.19	2.670890101881
0	34896	20.2	5.19618516988
0	34905	20.205	3.798992254121
0	34921	20.215	5.176630298247
0	34930	20.22	4.389086143189
0	34938	20.225	2.694969918061
0	34949	20.23	4.378762780242
0	34963	20.24	4.403694640184
0	34986	20.255	4.415870843647
0	34986	20.255	4.366867615844
0	35017	20.275	5.210893576127
0	35027	20.28	4.424472513935
0	35027	20.28	3.864886561693
0	35037	20.285	4.407408528865
0	35045	20.29	3.803241639656
0	35061	20.3	3.769334743023
0	35071	20.305	3.760831250951
0	35071	20.305	4.423404610784
0	35082	20.31	3.753178678914
0	35082	20.31	4.393294510213
0	35093	20.315	5.241197803491
0	35093	20.315	4.392551296879
0	35105	20.32	4.389914138682
0	35114	20.325	4.391504354957
0	35114	20.325	2.794877001277
0	35131	20.335	4.394849539696
0	35143	20.34	5.262013068031
0	35143	20.34	2.796934036845
0	35169	20.355	4.417314078837
0	35177	20.36	3.801410263073
0	35185	20.365	4.388907246504
0	35196	20.37	5.288229715842
0	35196	20.37	4.386399199392
0	35206	20.375	5.262032268752
0	35230	20.39	4.402790079702
0	35241	20.395	2.848827045903
0	35249	20.4	5.286062586969
0	35258	20.405	5.212662369515
0	35258	20.405	4.365845775889
0	35285	20.42	4.351834486252
0	35285	20.42	2.869621292004
0	35294	20.425	5.204559665174
0	35304	20.43	5.198423839631
0	35304	20.43	4.345731042323
0	35314	20.435	4.366674971028
0	35343	20.455	4.34331529309
0	35357	20.46	3.862357767449
0	35357	20.46	4.381283268408
0	35370	20.465	4.307653323588
0	35370	20.465	2.908912857999
0	35393	20.48	5.241146072719
0	35426	20.5	4.356276705515
0	35426	20.5	3.884700351819
0	35451	20.515	3.864714782141
0	35480	20.53	4.385276920424
0	35480	20.53	3.834509459402
0	35492	20.535	4.356576511032
0	35492	20.535	3.83032212676
0	35501	20.54	2.937520068099
0	35511	20.545	3.788197249313
0	35520	20.55	3.790514014046
0	35538	20.56	5.289369286192
0	35538	20.56	2.892080627587
0	35538	20.56	4.364368714597
0	35549	20.565	2.890199176838
0	35549	20.565	3.728772424701
0	35602	20.6	4.392040507851
0	35611	20.605	4.365187843677
0	35627	20.615	5.332153343662
0	35637	20.62	4.404857534047
0	35645	20.625	4.36309726634
0	35663	20.635	3.795852124288
0	35679	20.645	2.965638890305
0	35679	20.645	3.725051582899
0	35689	20.65	4.425384987575
0	35698	20.655	2.928400207824
0	35708	20.66	3.73832864498
0	35708	20.66	4.391266007825
0	35719	20.665	4.372877209012
0	35719	20.665	2.937379213328
0	35738	20.675	2.925030100181
0	35755	20.685	5.401380868444
0	35755	20.685	4.403112344528
0	35765	20.69	5.370756017748
0	35775	20.695	3.760315631565
0	35775	20.695	4.359865849043
0	35800	20.71	2.934096261818
0	35800	20.71	4.36701175156
0	35810	20.715	5.38515838297
0	35810	20.715	4.399402096575
0	35820	20.72	4.392729703863
0	35820	20.72	3.76652952739
0	35829	20.725	4.374444561897
0	35838	20.73	4.400130114817
0	35854	20.74	2.956237697219
0	35854	20.74	4.358175133925
0	35865	20.745	5.409984709639
0	35876	20.75	3.773042315886
0	35884	20.755	4.361993149307
0	35900	20.765	4.400611767599
0	35926	20.78	2.960146348186
0	35943	20.79	5.448714644665
0	35964	20.805	2.98491881597
0	35973	20.81	3.826171776988
0	35984	20.815	5.456686884198
0	35984	20.815	4.446649071228
0	35999	20.825	4.455940465509
0	36014	20.835	2.994868436842
0	36023	20.84	5.415341176437
0	36043	20.85	3.004988216268
0	36052	20.855	3.835164602317
0	36052	20.855	4.448733317868
0	36063	20.86	3.789124023209
0	36063	20.86	5.413132666737
0	36074	20.865	4.433054977426
0	36074	20.865	2.996048481363
0	36074	20.865	4.441316099208
0	36117	20.89	5.437617036107
0	36125	20.895	4.354502095656
0	36133	20.9	4.462510982999
0	36148	20.91	4.450486196068
0	36148	20.91	4.35742725035
0	36170	20.925	3.030327693079
0	36178	20.93	3.845123198626
0	36188	20.935	4.453124742563
0	36226	20.96	3.059513222174
0	36236	20.965	5.490266167394
0	36236	20.965	4.451198816184
0	36246	20.97	5.495238247231
0	36246	20.97	4.405243024944
0	36257	20.975	4.432359016846
0	36257	20.975	3.876636828521
0	36266	20.98	3.061870315667
0	36290	20.995	4.439873312362
0	36311	21.005	5.493285584963
0	36311	21.005	4.396538057891
0	36311	21.005	3.89384660891
0	36323	21.01	4.443867634764
0	36331	21.015	3.088887600461
0	36341	21.02	3.088418246215
0	36341	21.02	5.477333699088
0	36387	21.05	5.481112670025
0	36398	21.055	5.483724102996
0	36408	21.06	4.493744101897
0	36426	21.07	3.133893816114
0	36435	21.075	4.503733316161
0	36451	21.085	4.510757411722
0	36469	21.095	4.490921092149
0	36522	21.125	5.533429343192
0	36540	21.135	4.020465084011
0	36549	21.14	4.023028864126
0	36549	21.14	4.512912013106
0	36583	21.16	5.531628236215
0	36637	21.195	5.529661764118
0	36637	21.195	4.561513601454
0	36648	21.2	4.033871297284
0	36672	21.215	3.272483382485
0	36681	21.22	3.186344272811
0	36681	21.22	4.045608167942
0	36690	21.225	4.556717759533
0	36699	21.23	4.542194659991
0	36699	21.23	4.04376715495
0	36724	21.245	4.556500081649
0	36740	21.255	5.586885829816
0	36740	21.255	4.621718128365
0	36753	21.26	5.589611567619
0	36753	21.26	4.571510893315
0	36765	21.265	3.212535559582
0	36811	21.295	4.07005251583
0	36821	21.3	5.528366934215
0	36844	21.315	5.484123660192
0	36853	21.32	4.593879570865
0	36853	21.32	4.621489154049
0	36871	21.33	3.272629074909
0	36871	21.33	4.609129444268
0	36880	21.335	3.268734371538
0	36899	21.345	3.264956142613
0	36899	21.345	4.554576228998
0	36916	21.355	4.106232129464
0	36925	21.36	5.519503424729
0	36935	21.365	4.094943396729
0	36944	21.37	4.09647242937
0	36944	21.37	4.574452449131
0	36956	21.375	4.053592195915
0	36956	21.375	3.282868527582
0	36965	21.38	4.044307177724
0	36975	21.385	4.588562045963
0	36983	21.39	5.534243490511
0	36992	21.395	3.277812858803
0	37017	21.41	5.552364007546
0	37017	21.41	4.682786960384
0	37017	21.41	3.195842663079
0	37017	21.41	4.070418345174
0	37028	21.415	4.605153106858
0	37053	21.43	4.601804659391
0	37064	21.435	4.701655294008
0	37075	21.44	4.683997668441
0	37075	21.44	5.571645720672
0	37075	21.44	3.180025517505
0	37117	21.465	4.123219208545
0	37127	21.47	4.070741503497
0	37127	21.47	4.688569817447
0	37137	21.475	4.618119216826
0	37145	21.48	4.583013782346
0	37162	21.49	5.574411463255
0	37175	21.495	3.193377726903
0	37200	21.51	3.173847812301
0	37208	21.515	4.589404330926
0	37240	21.535	5.572789333233
0	37249	21.54	4.607675612933
0	37261	21.545	5.572009327024
0	37261	21.545	4.701318673947
0	37278	21.555	4.624724771103
0	37287	21.56	4.528716624985
0	37349	21.605	4.202911093532
0	37359	21.61	5.611905634512
0	37369	21.615	4.195842817362
0	37369	21.615	4.511060236127
0	37378	21.62	4.486345733341
0	37408	21.64	5.636189991072
0	37408	21.64	4.214670249496
0	37418	21.645	4.43612018073
0	37427	21.65	5.62060947142
0	37437	21.655	5.613672223292
0	37437	21.655	4.71717443223
0	37437	21.655	4.403515855499
0	37448	21.66	4.197942312487
0	37458	21.665	5.606514068596
0	37458	21.665	4.399407652856
0	37476	21.675	4.736626753436
0	37476	21.675	4.212686888538
0	37488	21.68	4.713781839466
0	37488	21.68	3.343523790044
0	37499	21.685	4.646184790482
0	37508	21.69	3.308243018348
0	37533	21.705	5.62672476341
0	37570	21.73	4.679582471206
0	37578	21.735	4.656426058328
0	37587	21.74	3.334587698412
0	37587	21.74	4.259574394779
0	37597	21.745	4.257999497233
0	37605	21.75	3.33472995293
0	37620	21.76	3.327275487691
0	37664	21.785	5.70022608674
0	37664	21.785	3.346114755211
0	37673	21.79	4.480331195625
0	37682	21.795	4.448863249699
0	37692	21.8	4.430196449418
0	37705	21.805	5.705946564606
0	37736	21.825	4.268385488278
0	37745	21.83	3.339271751803
0	37770	21.845	4.281017333866
0	37788	21.855	3.284852784942
0	37802	21.865	5.747825703332
0	37816	21.875	4.25702878262
0	37830	21.885	4.263958730553
0	37845	21.895	3.239834094372
0	37860	21.905	4.823927139967
0	37860	21.905	3.245710841896
0	37869	21.91	3.212392135415
0	37878	21.915	4.215795817567
0	37887	21.92	4.513963427702
0	37908	21.93	3.223859670787
0	37918	21.935	3.223969888312
0	37934	21.945	4.236091764925
0	37949	21.955	4.857340245099
0	37966	21.965	4.829397285862
0	37975	21.97	5.841427255505
0	37990	21.98	4.541370996312
0	37999	21.985	4.812538008734
0	38050	22.02	4.805409023607
0	38059	22.025	4.793507667594
0	38079	22.035	4.316265739719
0	38079	22.035	4.564737848726
0	38096	22.045	5.908443348083
0	38096	22.045	3.331375346742
0	38111	22.055	4.57129348976
0	38130	22.065	3.348705634934
0	38130	22.065	4.336943932824
0	38140	22.07	4.577093804831
0	38148	22.075	3.340882161724
0	38158	22.08	4.514386585688
0	38195	22.105	4.851310680964
0	38195	22.105	3.361471331105
0	38205	22.11	3.348514398995
0	38216	22.115	3.307014456416
0	38238	22.13	4.848394292955
0	38246	22.135	4.842361606301
0	38269	22.15	5.99364879696
0	38292	22.165	5.983906161848
0	38308	22.175	3.344133340011
0	38323	22.185	4.887132679261
0	38345	22.2	4.837728608655
0	38369	22.215	4.849633048771
0	38369	22.215	3.354222607128
0	38418	22.245	6.02728144006
0	38427	22.25	3.384404959123
0	38438	22.255	5.940687617818
0	38438	22.255	4.484292161161
0	38438	22.255	4.665948622043
0	38459	22.265	3.399159318216
0	38459	22.265	4.671114978961
0	38483	22.28	4.644852055857
0	38498	22.29	4.597744519289
0	38516	22.3	5.981827891793
0	38516	22.3	4.93017934066
0	38537	22.315	5.986308836108
0	38546	22.32	4.920393118227
0	38546	22.32	4.623117102522
0	38555	22.325	4.625212658344
0	38566	22.33	3.458519202802
0	38566	22.33	4.559093384932
0	38576	22.335	3.459297752331
0	38576	22.335	5.981949878794
0	38594	22.345	4.630120934899
0	38603	22.35	4.936764870735
0	38603	22.35	4.578097062662
0	38613	22.355	4.884030861605
0	38613	22.355	6.00076252423
0	38623	22.36	5.944014740125
0	38632	22.365	4.847634902024
0	38642	22.37	4.562217665739
0	38661	22.38	5.86538954718
0	38661	22.38	4.853089707459
0	38671	22.385	4.657831746577
0	38679	22.39	4.840295152009
0	38702	22.405	4.556204233271
0	38728	22.42	5.872305369364
0	38736	22.425	3.519716090915
0	38758	22.44	4.669151835628
0	38769	22.445	4.881998963879
0	38777	22.45	4.672357518262
0	38786	22.455	4.575819369476
0	38797	22.46	4.878487288709
0	38805	22.465	4.506248328811
0	38814	22.47	3.541368138058
0	38829	22.48	4.892706276012
0	38846	22.49	4.657001323685
0	38855	22.495	4.656680027912
0	38855	22.495	5.925032982373
0	38865	22.5	4.87277763655
0	38901	22.525	4.891653163123
0	38919	22.535	4.568783436871
0	38930	22.54	3.608396525884
0	38930	22.54	4.693795906513
0	38939	22.545	4.911418097098
0	38950	22.55	3.608702632382
0	38950	22.55	4.537683569518
0	38976	22.565	3.509154408305
0	39022	22.595	6.020576825724
0	39033	22.6	4.550521554159
0	39033	22.6	4.752964239996
0	39043	22.605	4.937461009117
0	39043	22.605	3.543273918492
0	39060	22.615	4.93902765982
0	39060	22.615	4.529900844745
0	39073	22.62	4.942858830347
0	39073	22.62	3.55186471079
0	39083	22.625	6.045205666386
0	39092	22.63	3.546725663947
0	39100	22.635	3.522742637677
0	39121	22.65	3.486717919448
0	39130	22.655	4.790009289624
0	39138	22.66	4.537984117354
0	39146	22.665	4.531580615229
0	39154	22.67	6.08375480523
0	39170	22.68	3.502818805001
0	39180	22.685	3.506682273264
0	39180	22.685	4.819633986377
0	39189	22.69	3.488972998934
0	39199	22.695	3.457471505855
0	39199	22.695	5.013119233288
0	39199	22.695	4.530520616562
0	39209	22.7	4.830440513632
0	39224	22.71	3.462573402339
0	39233	22.715	6.118115361925
0	39245	22.72	5.021696279072
0	39245	22.72	3.396711376699
0	39257	22.725	3.398730775549
0	39257	22.725	4.846066273107
0	39274	22.735	6.091179593405
0	39282	22.74	5.029055128421
0	39298	22.75	5.038433767213
0	39322	22.765	4.592776841558
0	39322	22.765	4.869655178684
0	39340	22.775	4.591281491838
0	39349	22.78	6.02323129509
0	39364	22.79	4.600093043964
0	39373	22.795	4.869755856648
0	39381	22.8	5.074532633498
0	39390	22.805	4.562254109108
0	39399	22.81	6.040188618408
0	39416	22.82	5.077522982921
0	39416	22.82	4.531284164155
0	39416	22.82	4.840217550314
0	39426	22.825	3.47537064004
0	39435	22.83	3.476105587114
0	39435	22.83	4.482441857641
0	39450	22.84	3.483114832413
0	39467	22.85	4.800866559347
0	39476	22.855	6.057242965788
0	39493	22.865	6.047887049795
0	39504	22.87	4.79023430289
0	39523	22.88	5.135426251862
0	39537	22.89	4.468761463291
0	39545	22.895	3.517680495085
0	39554	22.9	3.482198687772
0	39563	22.905	3.443527005992
0	39563	22.905	4.463240512943
0	39581	22.915	5.076760781012
0	39597	22.925	3.462450377731
0	39597	22.925	4.454480546061
0	39607	22.93	5.077419645329
0	39615	22.935	3.452519965457
0	39633	22.945	5.074349616165
0	39662	22.965	4.883308914786
0	39670	22.97	4.839949829687
0	39707	22.995	6.16285885233
0	39716	23	4.464348325737
0	39740	23.015	6.142644154227
0	39748	23.02	4.85356736701
0	39756	23.025	6.137625883879
0	39773	23.035	3.528524659324
0	39787	23.045	6.155595827369
0	39795	23.05	4.470878664595
0	39804	23.055	4.852015693244
0	39815	23.06	5.135425515026
0	39831	23.07	3.533320382362
0	39840	23.075	6.143328140948
0	39862	23.09	6.131567233413
0	39872	23.095	5.158872563553
0	39872	23.095	4.889439331708
0	39887	23.105	4.509154391815
0	39896	23.11	5.171673324141
0	39907	23.115	3.568693794055
0	39907	23.115	4.905545195882
0	39920	23.12	3.565254951373
0	39920	23.12	4.872712129891
0	39920	23.12	6.145680117402
0	39930	23.125	4.50585265878
0	39953	23.14	5.177364363983
0	39961	23.145	5.152212209689
0	39980	23.155	6.173752884418
0	39980	23.155	5.154800278002
0	39997	23.165	3.54133031521
0	40015	23.175	3.546181444337
0	40015	23.175	4.548111633365
0	40045	23.195	6.206550901913
0	40053	23.2	3.570226493816
0	40062	23.205	4.956191208868
0	40070	23.21	4.57726159117
0	40080	23.215	3.584994218325
0	40090	23.22	6.184090351665
0	40090	23.22	4.576850791426
0	40103	23.225	4.566977179189
0	40103	23.225	5.208605425945
0	40103	23.225	4.923349216569
0	40115	23.23	5.186916068637
0	40131	23.24	5.181073135072
0	40161	23.26	6.203448168626
0	40171	23.265	5.193281986926
0	40171	23.265	4.599764404485
0	40180	23.27	4.570706029745
0	40190	23.275	3.607895209368
0	40190	23.275	4.922518606923
0	40206	23.285	6.20577824253
0	40214	23.29	3.591906663537
0	40222	23.295	3.582024264142
0	40231	23.3	5.218612912882
0	40231	23.3	4.939373613856
0	40242	23.305	5.17708991812
0	40242	23.305	3.590938796468
0	40267	23.32	4.56875149917
0	40277	23.325	6.225525323017
0	40277	23.325	3.582348371353
0	40287	23.33	4.569773781095
0	40296	23.335	4.511275970004
0	40313	23.345	6.219386904688
0	40330	23.355	5.225205658804
0	40339	23.36	5.125759679951
0	40339	23.36	4.523933730199
0	40355	23.37	4.445955040661
0	40378	23.385	5.124364267402
0	40389	23.39	4.410595445333
0	40398	23.395	6.264832603333
0	40407	23.4	6.222204057141
0	40407	23.4	3.653343017486
0	40429	23.415	5.138732735802
0	40438	23.42	3.668112558773
0	40438	23.42	5.050683677847
0	40449	23.425	5.066708642094
0	40449	23.425	4.427869949833
0	40459	23.43	5.051914819037
0	40459	23.43	5.045435978459
0	40478	23.44	4.97570414151
0	40496	23.45	4.961318490174
0	40496	23.45	5.059025052111
0	40506	23.455	4.959622684321
0	40529	23.47	4.879609560925
0	40541	23.475	4.474899947619
0	40549	23.48	3.718779808386
0	40559	23.485	4.894274421649
0	40588	23.505	3.728495757215
0	40598	23.51	4.436671417503
0	40598	23.51	5.118628467156
0	40608	23.515	6.272102846281
0	40623	23.525	4.918603000058
0	40634	23.53	5.101746070058
0	40665	23.55	5.101264230013
0	40673	23.555	4.442485490179
0	40683	23.56	6.310843504597
0	40710	23.575	3.715453706952
0	40710	23.575	5.095767417621
0	40727	23.585	6.334711980297
0	40744	23.595	3.735220511574
0	40744	23.595	5.037699998749
0	40754	23.6	5.019304121416
0	40754	23.6	4.3796846135
0	40777	23.615	3.707349614353
0	40777	23.615	4.355416524973
0	40794	23.625	6.373443942224
0	40802	23.63	3.705325794084
0	40811	23.635	3.666212314972
0	40811	23.635	6.371278762051
0	40823	23.64	3.662376632849
0	40823	23.64	4.377276868604
0	40823	23.64	4.967377362485
0	40841	23.65	6.372562279575
0	40849	23.655	6.376507686973
0	40864	23.665	4.945655517907
0	40864	23.665	3.664818252599
0	40875	23.67	4.934138486486
0	40875	23.67	3.63186426721
0	40894	23.68	3.621751879301
0	40914	23.69	4.426444724455
0	40922	23.695	3.59582893209
0	40937	23.705	4.437647691586
0	40945	23.71	3.581479034844
0	40963	23.72	3.589513486142
0	40963	23.72	5.045871298411
0	40987	23.735	6.455674560307
0	40987	23.735	3.569721120181
0	40999	23.74	4.459925024918
0	41010	23.745	6.465555589974
0	41010	23.745	4.99483369462
0	41025	23.755	4.997126272349
0	41036	23.76	5.000554628184
0	41065	23.78	4.450291530493
0	41074	23.785	4.400649328411
0	41095	23.8	4.988666288991
0	41112	23.81	6.523557548996
0	41125	23.815	4.395377100483
0	41140	23.825	5.016074135493
0	41155	23.835	5.024487361095
0	41165	23.84	6.546613198646
0	41181	23.85	3.677317840392
0	41191	23.855	5.030426454611
0	41199	23.86	4.392881481842
0	41211	23.865	5.035239750025
0	41223	23.87	5.048225115267
0	41238	23.88	4.998277225161
0	41238	23.88	3.675312279646
0	41248	23.885	4.965519992576
0	41248	23.885	5.037635911028
0	41266	23.895	6.58134950802
0	41266	23.895	4.397392160231
0	41266	23.895	5.006174622032
0	41278	23.9	4.388346930467
0	41288	23.905	4.352011123583
0	41297	23.91	4.348618188206
0	41319	23.925	4.356197997248
0	41327	23.93	3.720462558508
0	41336	23.935	4.344208313826
0	41374	23.96	4.362516371818
0	41374	23.96	5.05323773216
0	41383	23.965	5.034717608792
0	41391	23.97	5.0333866308
0	41407	23.98	3.76452141657
0	41416	23.985	5.049334080928
0	41424	23.99	5.045007513963
0	41438	24	5.044927082965
0	41447	24.005	6.690353756838
0	41480	24.025	5.003400411302
0	41499	24.035	6.702168931561
0	41499	24.035	4.950912097926
0	41508	24.04	6.605413269073
0	41525	24.05	5.090304705005
0	41537	24.055	6.573036903471
0	41537	24.055	4.453895582425
0	41548	24.06	4.455420850876
0	41548	24.06	5.097857382362
0	41558	24.065	5.097857430801
0	41567	24.07	5.065748169823
0	41567	24.07	6.57617935748
0	41577	24.075	4.458451817075
0	41586	24.08	5.057650124854
0	41596	24.085	6.547347140341
0	41607	24.09	4.987618760224
0	41607	24.09	4.452015840368
0	41607	24.09	5.064535355324
0	41619	24.095	4.970478452811
0	41619	24.095	3.835082672269
0	41629	24.1	5.072422163003
0	41646	24.11	6.525726361863
0	41669	24.125	4.9849021611
0	41677	24.13	4.426324200589
0	41688	24.135	3.824703287753
0	41711	24.15	4.999167665936
0	41711	24.15	4.421106242904
0	41721	24.155	6.559574104958
0	41721	24.155	3.823763956258
0	41737	24.165	3.83008710517
0	41753	24.175	3.835332498473
0	41753	24.175	4.391921787971
0	41762	24.18	5.141410810701
0	41779	24.19	4.401712920118
0	41788	24.195	3.803306505995
0	41797	24.2	6.583472583645
0	41807	24.205	6.568410930359
0	41807	24.205	3.811489852489
0	41823	24.215	6.57295700665
0	41833	24.22	6.512916363507
0	41833	24.22	5.063769852944
0	41833	24.22	4.430155940465
0	41844	24.225	6.504012335819
0	41853	24.23	3.810678784632
0	41869	24.24	5.185026979169
0	41878	24.245	5.078508911651
0	41878	24.245	4.398741352212
0	41899	24.255	6.531541057851
0	41899	24.255	5.070012149532
0	41899	24.255	4.405527150978
0	41909	24.26	4.405409401184
0	41917	24.265	3.834642256073
0	41947	24.285	6.542918289989
0	41967	24.295	6.548770260116
0	41982	24.305	5.245919935853
0	41991	24.31	5.249571801556
0	42000	24.315	3.816750278947
0	42009	24.32	5.248899743263
0	42026	24.33	4.471900973063
0	42034	24.335	5.14607119685
0	42042	24.34	3.827836413247
0	42050	24.345	3.820384107612
0	42067	24.355	5.14315239955
0	42081	24.365	5.243798540782
0	42097	24.375	4.516745404569
0	42109	24.38	6.610786139055
0	42109	24.38	5.12326640349
0	42109	24.38	3.773358494253
0	42167	24.415	6.600803484706
0	42167	24.415	3.797581152588
0	42179	24.42	3.79478216978
0	42179	24.42	4.555271832449
0	42179	24.42	5.27537525941
0	42191	24.425	4.553242051469
0	42201	24.43	3.802274044365
0	42209	24.435	4.552221807342
0	42220	24.44	6.623383432764
0	42220	24.44	5.233705032863
0	42231	24.445	6.625545786482
0	42247	24.455	6.608423064739
0	42247	24.455	3.784222387188
0	42257	24.46	5.247332675201
0	42275	24.47	6.611299267768
0	42283	24.475	6.605411146365
0	42306	24.49	3.796991442386
0	42314	24.495	5.236932440539
0	42324	24.5	6.619200347031
0	42334	24.505	4.590901496413
0	42361	24.52	5.261085738773
0	42371	24.525	5.19692136109
0	42371	24.525	6.628837950315
0	42382	24.53	5.201824673732
0	42382	24.53	5.229828746852
0	42405	24.545	5.137875133594
0	42405	24.545	3.835782341342
0	42416	24.55	3.804122143527
0	42416	24.55	5.247105878273
0	42432	24.56	5.229694157654
0	42451	24.57	3.823364433543
0	42475	24.585	5.146150888962
0	42490	24.595	4.658483888137
0	42498	24.6	4.660106500622
0	42508	24.605	5.157329365059
0	42547	24.63	3.870752266271
0	42564	24.64	4.647753660527
0	42582	24.65	6.715003429595
0	42590	24.655	5.293843415097
0	42600	24.66	6.724245012677
0	42600	24.66	3.881084503616
0	42610	24.665	6.701832655431
0	42622	24.67	6.678448571976
0	42622	24.67	3.858310691193
0	42622	24.67	4.594501663168
0	42633	24.675	4.516761129552
0	42633	24.675	5.312418368474
0	42644	24.68	5.285755621945
0	42644	24.68	6.667542217126
0	42661	24.69	4.52829052237
0	42674	24.695	4.533170550462
0	42687	24.7	6.663228467087
0	42711	24.715	5.259371177688
0	42749	24.74	5.26905797877
0	42749	24.74	4.490397305833
0	42749	24.74	5.34508877352
0	42761	24.745	5.264925074249
0	42761	24.745	3.908514068547
0	42777	24.755	3.910037039326
0	42792	24.765	3.917866351663
0	42792	24.765	4.513604942825
0	42801	24.77	5.283474455478
0	42816	24.78	5.291707100289
0	42836	24.79	5.247012648113
0	42844	24.795	5.214117373967
0	42860	24.805	5.15783423712
0	42869	24.81	3.930887906805
0	42877	24.815	4.554760454962
0	42886	24.82	3.883770190057
0	42896	24.825	4.53387956347
0	42905	24.83	5.16780492988
0	42914	24.835	4.518179492179
0	42937	24.85	5.412252538528
0	42945	24.855	5.38290981026
0	42955	24.86	5.323838874281
0	42955	24.86	3.923768347565
0	42972	24.87	4.529211378403
0	42980	24.875	5.337069288078
0	42996	24.885	3.911975701766
0	43011	24.895	6.84547509765
0	43020	24.9	5.210365579021
0	43030	24.905	3.845701152405
0	43038	24.91	5.354699164941
0	43047	24.915	5.123202100031
0	43058	24.92	5.104354702347
0	43058	24.92	3.859753902696
0	43067	24.925	6.867273830018
0	43075	24.93	6.867580262965
0	43083	24.935	5.102151713736
0	43114	24.955	4.613510310849
0	43114	24.955	5.388700563325
0	43131	24.965	6.888446341052
0	43140	24.97	4.582979240241
0	43155	24.98	4.588754769377
0	43164	24.985	4.577401423976
0	43164	24.985	5.409251903283
0	43173	24.99	6.893356246483
0	43196	25.005	5.139454337464
0	43205	25.01	5.07293329896
0	43205	25.01	6.893728988335
0	43221	25.02	5.422646991875
0	43231	25.025	6.847420209508
0	43231	25.025	3.951619064058
0	43231	25.025	4.613343876592
0	43250	25.035	3.943351352163
0	43250	25.035	4.605926383162
0	43260	25.04	6.840846685508
0	43260	25.04	5.434822015718
0	43300	25.065	5.124079563784
0	43312	25.07	6.831944766492
0	43312	25.07	3.950997084369
0	43321	25.075	4.629765786176
0	43331	25.08	3.960928038959
0	43331	25.08	5.47330679352
0	43341	25.085	5.417994129017
0	43362	25.095	3.946441592659
0	43362	25.095	5.425569013759
0	43386	25.11	5.150005172248
0	43386	25.11	4.6533602241
0	43397	25.115	4.656851410866
0	43397	25.115	6.849858251455
0	43397	25.115	5.39929383596
0	43407	25.12	6.830153127465
0	43417	25.125	5.145440262525
0	43427	25.13	5.411167622091
0	43438	25.135	6.803106283079
0	43438	25.135	5.149002782048
0	43471	25.155	5.433424999834
0	43479	25.16	6.807517998722
0	43501	25.175	4.00880089071
0	43520	25.185	6.82517051092
0	43520	25.185	5.195659878051
0	43520	25.185	4.008080958273
0	43533	25.19	6.805298197559
0	43548	25.2	6.793549979834
0	43557	25.205	5.471407332464
0	43566	25.21	5.459526811519
0	43577	25.215	5.421096436548
0	43577	25.215	6.788501110784
0	43586	25.22	4.024060261735
0	43595	25.225	4.024373849538
0	43625	25.245	5.244334771789
0	43642	25.255	5.245071442207
0	43642	25.255	4.79064180085
0	43652	25.26	4.774115432287
0	43661	25.265	5.445080154271
0	43670	25.27	6.842781787509
0	43670	25.27	4.060624012515
0	43688	25.28	4.048610284411
0	43697	25.285	4.042230386047
0	43697	25.285	6.835383422564
0	43713	25.295	4.030029167426
0	43724	25.3	6.748431842923
0	43733	25.305	5.480713582759
0	43752	25.315	4.824772393484
0	43800	25.345	6.749111121125
0	43809	25.35	6.729478443004
0	43826	25.36	6.696870843875
0	43835	25.365	6.654004124714
0	43845	25.37	6.638724845704
0	43845	25.37	4.866281915713
0	43887	25.395	6.615483891348
0	43887	25.395	4.869343234906
0	43897	25.4	5.56415494743
0	43906	25.405	6.60786358576
0	43920	25.415	5.574975739747
0	43929	25.42	4.878852626529
0	43965	25.445	5.58149354218
0	43983	25.455	4.897749809822
0	43983	25.455	5.572506430727
0	43994	25.46	6.653388192488
0	44005	25.465	4.191376222666
0	44005	25.465	5.515317552241
0	44021	25.475	4.859151395957
0	44035	25.485	4.204317461322
0	44064	25.505	4.202554279476
0	44075	25.51	6.676555427749
0	44075	25.51	4.884035627837
0	44075	25.51	5.557716688942
0	44094	25.52	5.409731985292
0	44111	25.53	6.649351688402
0	44111	25.53	4.902438448305
0	44122	25.535	5.389265491566
0	44145	25.55	4.227205412289
0	44155	25.555	5.540523662892
0	44155	25.555	4.902588771097
0	44166	25.56	4.894607180836
0	44174	25.565	4.235658292603
0	44184	25.57	4.801913204327
0	44192	25.575	4.793728425297
0	44200	25.58	5.418823632455
0	44209	25.585	6.692515008919
0	44209	25.585	4.797343763644
0	44222	25.59	4.795524293684
0	44222	25.59	5.423324875104
0	44236	25.595	5.425301904857
0	44236	25.595	4.234118685313
0	44250	25.6	4.216990609591
0	44259	25.605	6.695654466006
0	44276	25.615	5.347028034211
0	44306	25.635	6.721755722163
0	44306	25.635	4.21831893699
0	44306	25.635	5.334115330385
0	44325	25.645	6.725777633135
0	44333	25.65	6.700985513972
0	44351	25.66	4.826076171159
0	44351	25.66	5.340954806412
0	44362	25.665	5.614433250461
0	44370	25.67	6.69515586256
0	44378	25.675	6.687327311299
0	44393	25.685	5.30828743133
0	44411	25.695	5.279118203833
0	44419	25.7	4.859435625135
0	44429	25.705	4.827802302606
0	44443	25.715	4.294461621905
0	44456	25.72	4.288484271913
0	44456	25.72	5.656082250062
0	44456	25.72	5.282785675198
0	44467	25.725	4.288394488576
0	44484	25.735	6.723425701786
0	44504	25.745	6.729853520708
0	44513	25.75	4.306625843147
0	44528	25.76	6.709666629289
0	44528	25.76	4.81505504774
0	44543	25.77	5.314271528469
0	44552	25.775	5.254131464356
0	44552	25.775	5.671882350384
0	44562	25.78	4.318321785602
0	44562	25.78	4.831394602795
0	44572	25.785	4.820619294027
0	44580	25.79	5.268492574202
0	44590	25.795	6.742516885901
0	44600	25.8	6.732361455092
0	44610	25.805	4.324131321577
0	44630	25.815	4.248268740536
0	44630	25.815	4.831619160832
0	44630	25.815	5.274517925682
0	44643	25.82	5.707787552959
0	44653	25.825	4.244132598865
0	44653	25.825	5.279182734166
0	44662	25.83	5.248365869688
0	44671	25.835	5.651845271202
0	44680	25.84	4.845733565564
0	44689	25.845	5.659150512088
0	44711	25.86	5.275320688866
0	44729	25.87	6.787225479097
0	44729	25.87	5.263781768568
0	44753	25.885	5.249015698851
0	44761	25.89	4.283282785617
0	44769	25.895	5.221708965154
0	44780	25.9	5.226669069139
0	44780	25.9	6.739662498915
0	44780	25.9	4.901389710153
0	44790	25.905	4.885397076823
0	44799	25.91	4.853626743591
0	44818	25.92	5.690292611677
0	44818	25.92	5.220873441821
0	44829	25.925	5.663375134347
0	44829	25.925	4.297446923321
0	44840	25.93	4.263685445997
0	44840	25.93	4.842387630631
0	44840	25.93	5.188695265101
0	44859	25.94	6.766338496989
0	44859	25.94	4.816469307496
0	44890	25.96	5.216219414823
0	44912	25.975	4.832409197245
0	44939	25.99	4.22262290717
0	44971	26.01	6.823681429456
0	44981	26.015	6.761454375848
0	44998	26.025	4.878804728379
0	44998	26.025	5.184808270428
0	45009	26.03	5.754827397722
0	45009	26.03	4.23382419371
0	45021	26.035	5.695129024893
0	45021	26.035	6.778685717423
0	45031	26.04	4.846271842611
0	45031	26.04	5.18167304981
0	45048	26.05	6.790653763544
0	45070	26.065	5.720206833267
0	45082	26.07	4.834857045798
0	45100	26.08	4.277459069395
0	45100	26.08	5.212689460619
0	45116	26.09	4.830959684432
0	45126	26.095	4.830853524502
0	45126	26.095	4.245405035849
0	45138	26.1	4.819632332143
0	45138	26.1	5.728211682205
0	45167	26.12	6.832764418118
0	45167	26.12	5.67101501156
0	45180	26.125	4.837743884284
0	45180	26.125	5.25642593014
0	45197	26.135	4.799263267665
0	45206	26.14	5.254259502072
0	45215	26.145	4.295222344583
0	45224	26.15	4.296197162233
0	45224	26.15	5.15498454583
0	45233	26.155	6.858179758723
0	45242	26.16	5.153212471262
0	45259	26.17	5.713805600941
0	45268	26.175	6.870844359003
0	45295	26.195	4.340347710677
0	45306	26.2	4.850354988654
0	45314	26.205	5.197663952381
0	45329	26.215	5.735581140209
0	45338	26.22	6.906573110322
0	45346	26.225	4.869722882423
0	45374	26.24	5.755932594029
0	45384	26.245	4.870001855732
0	45384	26.245	5.191719352765
0	45395	26.25	4.846487056013
0	45395	26.25	4.334176909291
0	45413	26.26	4.771239210788
0	45424	26.265	4.772531602691
0	45424	26.265	5.776464201778
0	45436	26.27	6.914153828642
0	45447	26.275	4.349847747542
0	45447	26.275	4.780419923115
0	45447	26.275	5.180873146901
0	45458	26.28	4.775559615137
0	45466	26.285	4.326072260235
0	45475	26.29	4.759518557587
0	45484	26.295	4.331123530035
0	45492	26.3	5.803928041222
0	45500	26.305	4.321316789672
0	45518	26.315	5.218746690498
0	45527	26.32	4.290039423268
0	45542	26.33	6.957425945511
0	45542	26.33	4.296242178474
0	45552	26.335	5.194294892744
0	45577	26.35	6.935656008914
0	45577	26.35	5.842328798876
0	45577	26.35	4.818775860434
0	45577	26.35	5.192537512149
0	45590	26.355	6.909288816553
0	45590	26.355	5.176146428336
0	45601	26.36	5.844525697799
0	45601	26.36	4.814504603046
0	45627	26.375	6.911334926509
0	45645	26.385	4.829408608133
0	45654	26.39	4.720439318078
0	45675	26.405	5.881720415947
0	45699	26.42	4.744314951493
0	45708	26.425	4.389144939762
0	45719	26.43	4.37461258034
0	45719	26.43	4.741033806296
0	45728	26.435	5.225655333707
0	45736	26.44	5.908799498777
0	45753	26.45	5.210109824337
0	45764	26.455	5.895627706363
0	45764	26.455	4.396144490534
0	45781	26.465	4.296723517911
0	45781	26.465	4.763186192369
0	45792	26.47	6.917406155792
0	45792	26.47	5.811357560556
0	45802	26.475	6.885237984649
0	45802	26.475	4.733234630868
0	45813	26.48	6.86146916494
0	45813	26.48	4.311238032849
0	45824	26.485	6.831858080966
0	45824	26.485	4.306927867679
0	45838	26.49	4.290836047755
0	45838	26.49	5.237529676119
0	45849	26.495	6.822599792211
0	45849	26.495	5.815168018216
0	45871	26.505	6.812470751296
0	45881	26.51	6.787646721648
0	45907	26.525	5.841238507494
0	45915	26.53	4.322109510476
0	45923	26.535	5.27597624321
0	45954	26.555	6.797234320709
0	45964	26.56	4.798846582705
0	45982	26.57	4.792021723531
0	45982	26.57	5.30043599311
0	45992	26.575	6.816857082276
0	46000	26.58	4.359833686068
0	46009	26.585	5.30442127087
0	46017	26.59	5.892539069891
0	46040	26.605	4.801603810914
0	46058	26.615	5.312546270877
0	46073	26.625	5.277625524953
0	46082	26.63	4.384784089532
0	46105	26.645	4.374798792226
0	46105	26.645	5.274053898167
0	46114	26.65	5.9116538274
0	46123	26.655	5.897403181657
0	46134	26.66	6.877632353374
0	46134	26.66	4.856022959075
0	46134	26.66	5.278103761302
0	46153	26.67	5.889374136224
0	46171	26.68	4.397718689159
0	46171	26.68	4.855418845925
0	46180	26.685	5.269068097542
0	46189	26.69	4.852142099342
0	46199	26.695	4.803912307058
0	46199	26.695	6.886783834795
0	46218	26.705	4.378103871302
0	46218	26.705	5.275688516033
0	46229	26.71	5.897325769805
0	46229	26.71	4.796605280094
0	46267	26.735	4.390478033563
0	46291	26.75	6.869542680852
0	46301	26.755	5.913304264633
0	46312	26.76	5.911442433443
0	46321	26.765	4.393877806623
0	46329	26.77	6.863701087659
0	46337	26.775	5.83444501034
0	46345	26.78	6.85733871545
0	46355	26.785	4.410857259858
0	46364	26.79	4.413165632575
0	46373	26.795	4.396750203623
0	46373	26.795	6.850538510531
0	46383	26.8	6.819777899102
0	46383	26.8	5.36956717928
0	46401	26.81	5.862111221171
0	46425	26.825	4.81565960105
0	46442	26.835	4.415021625902
0	46442	26.835	4.800752804558
0	46466	26.85	5.392016467564
0	46495	26.87	5.887543639758
0	46503	26.875	4.434554339937
0	46513	26.88	5.894490800599
0	46513	26.88	5.413947979161
0	46525	26.885	5.412712515255
0	46525	26.885	4.827068715542
0	46535	26.89	6.890031525195
0	46545	26.895	5.896984187913
0	46554	26.9	5.896675618236
0	46554	26.9	4.822671613571
0	46563	26.905	4.445595246744
0	46571	26.91	5.879111836558
0	46581	26.915	4.434166267771
0	46591	26.92	5.420174567708
0	46600	26.925	5.881648918179
0	46618	26.935	6.887862427963
0	46618	26.935	5.88532951674
0	46618	26.935	4.857327876124
0	46629	26.94	5.886443079545
0	46629	26.94	4.837452276163
0	46639	26.945	5.850811000178
0	46649	26.95	6.887985402557
0	46649	26.95	4.787643172184
0	46661	26.955	6.888878685112
0	46661	26.955	4.715740737401
0	46661	26.955	5.856308731461
0	46672	26.96	4.70131540594
0	46672	26.96	5.856588905168
0	46695	26.97	5.43936866708
0	46703	26.975	6.904458078366
0	46713	26.98	4.64327604019
0	46721	26.985	5.45237130501
0	46744	27	5.459175019623
[...]
7	146241	84.059551159007	615
7	146257	84.068121942591	615
7	146269	84.074780967192	616
7	146361	84.121483384308	615
7	146385	84.131842485018	616
7	146424	84.156525151394	617
7	146425	84.156750055628	618
7	146508	84.205772142896	618
7	146578	84.247073410183	618
7	146586	84.252258312883	619
7	146596	84.256552683789	620
7	146625	84.272617637339	620
7	146652	84.289228033692	620
7	146680	84.303519575941	619
7	146724	84.329017162926	620
7	146733	84.330662294164	621
7	146743	84.338258298172	622
7	146822	84.388605540616	622
7	146833	84.394790259312	623
7	146842	84.399443348043	624
7	146889	84.42919471062	625
7	146909	84.435595106261	625
7	146928	84.445930156882	626
7	146947	84.458248855676	627
7	146987	84.481357927322	627
7	146996	84.488720503683	628
7	147137	84.573852507125	627
7	147210	84.610927311461	626
7	147319	84.67114585806	625
7	147362	84.696328553643	626
7	147401	84.716558791161	623
7	147409	84.72183112481	624
7	147417	84.726353936444	625
7	147441	84.74032575469	625
7	147445	84.743166447782	626
7	147514	84.783187939387	626
7	147522	84.788498883312	627
7	147607	84.830565071661	627
7	147616	84.835090108892	627
7	147617	84.838147427161	628
7	147627	84.844779645301	629
7	147745	84.90723080163	626
7	147785	84.930433889307	627
7	147847	84.969425234048	628
7	147882	84.987717152396	628
7	147891	84.990131438657	629
7	147899	84.998747750918	630
7	147944	85.023480762683	631
7	147960	85.0317970277	632
7	147961	85.032118457902	633
7	147983	85.041952862608	634
7	147994	85.047880149494	634
7	147995	85.048256974701	635
7	148036	85.068233319627	634
7	148037	85.068574930465	635
7	148067	85.081512939968	635
7	148068	85.081557724793	636
7	148102	85.103887027752	636
7	148189	85.145495972608	636
7	148232	85.173774996636	637
7	148241	85.175770212668	638
7	148299	85.206706677216	635
7	148331	85.225216805331	635
7	148339	85.233079341201	636
7	148355	85.241163298359	637
7	148367	85.247016350488	638
7	148369	85.249744633139	639
7	148446	85.290178310387	640
7	148583	85.371441201257	640
7	148613	85.393266770429	640
7	148667	85.422512386591	640
7	148748	85.469687095468	637
7	148810	85.503626062538	636
7	148934	85.57069066601	636
7	149149	85.692441499661	632
7	149174	85.706159347283	633
7	149210	85.733702000731	634
7	149219	85.737079736156	635
7	149221	85.739384160201	636
7	149430	85.865810468279	632
7	149438	85.873615098314	633
7	149473	85.890762268499	634
7	149499	85.908131251045	635
7	149510	85.912813805377	636
7	149545	85.930652007366	635
7	149547	85.933482051044	636
7	149615	85.971921835681	635
7	149616	85.971928182647	636
7	149625	85.977260401971	637
7	149626	85.978011768475	638
7	149645	85.986057860415	638
7	149646	85.987239597981	639
7	149688	86.011832386646	639
7	149703	86.02064367752	639
7	149752	86.049076772261	638
7	149841	86.098260800157	638
7	149932	86.149707743966	638
7	149940	86.154072724574	639
7	149982	86.177943947485	639
7	150000	86.189778017942	640
7	150098	86.245280806174	640
7	150099	86.246035716528	641
7	150101	86.249261357674	642
7	150187	86.296422289926	641
7	150200	86.305363621789	642
7	150297	86.360230780762	640
7	150326	86.378435718129	640
7	150518	86.497652471011	639
7	150526	86.501139760143	640
7	150536	86.506212225774	641
7	150537	86.506602655925	642
7	150555	86.518232877856	643
7	150697	86.601819497271	640
7	150742	86.631624105477	640
7	150744	86.6327698879	641
7	150765	86.642530955879	642
7	150766	86.64384249683	643
7	150785	86.652704796554	643
7	150786	86.652954499149	644
7	150816	86.669572675554	644
7	150856	86.685077623194	644
7	150884	86.704780803954	645
7	150936	86.730411058657	646
7	150961	86.745724521798	647
7	150979	86.759026352933	648
7	150989	86.764169792824	649
7	151113	86.841876309173	650
7	151123	86.848611347739	651
7	151142	86.859034765541	652
7	151187	86.883185819254	653
7	151219	86.903364059327	653
7	151263	86.933110467473	654
7	151365	86.990983900578	654
7	151366	86.993961754448	655
7	151384	87.00288176474	655
7	151411	87.017692965769	655
7	151489	87.063930661196	654
7	151539	87.092563050863	653
7	151554	87.10480649184	654
7	151591	87.123413560396	654
7	151668	87.16479319542	655
7	151679	87.166728303376	656
7	151749	87.213029761877	656
7	151761	87.215740440795	657
7	151805	87.241069449111	658
7	151807	87.242705456377	659
7	151815	87.247079533356	660
7	151825	87.252395279904	661
7	151931	87.310047483786	660
7	151945	87.319663285332	661
7	151976	87.3317786241	661
7	152017	87.359639110745	662
7	152025	87.363490645378	663
7	152027	87.364677683079	664
7	152042	87.370802215924	665
7	152158	87.439770889849	663
7	152181	87.451485024364	664
7	152182	87.454708682379	665
7	152199	87.46096664792	666
7	152230	87.480330941437	667
7	152341	87.546609207333	667
7	152342	87.54846152429	668
7	152371	87.563087064802	669
7	152373	87.564619273985	670
7	152383	87.569976250917	671
7	152462	87.60884702601	670
7	152525	87.64019569253	670
7	152526	87.644779964712	671
7	152541	87.653239838918	672
7	152606	87.686030831302	672
7	152614	87.690303983569	673
7	152623	87.699264643072	674
7	152715	87.746934710064	675
7	152784	87.781994951482	673
7	152806	87.791059677669	674
7	152816	87.797931879657	675
7	152856	87.818928418795	675
7	152868	87.822300798014	676
7	152934	87.864065704391	677
7	152943	87.865782669846	677
7	152968	87.8790348366	678
7	153059	87.925954505881	678
7	153060	87.925970912168	679
7	153083	87.936990330078	680
7	153104	87.946951037022	680
7	153106	87.948546429959	681
7	153188	87.998815782432	681
7	153196	88.002896594008	682
7	153374	88.103490504785	679
7	153375	88.104987721215	680
7	153427	88.137941016035	679
7	153497	88.177134246369	677
7	153524	88.192201235096	678
7	153641	88.252457253641	676
7	153658	88.264635800089	677
7	153668	88.26864088002	677
7	153802	88.341130699698	675
7	153812	88.347626304632	676
7	153834	88.361466724854	676
7	153887	88.394729615687	675
7	153929	88.419731002815	675
7	153955	88.434070670208	676
7	153965	88.435667432975	677
7	154006	88.46102730946	678
7	154007	88.463151084943	679
7	154053	88.488534815938	679
7	154070	88.495710416786	680
7	154123	88.529655723502	679
7	154192	88.568499997051	677
7	154248	88.59759865846	678
7	154288	88.620839923764	679
7	154454	88.71753409281	679
7	154464	88.724693396183	679
7	154523	88.753613217408	680
7	154548	88.769203494029	680
7	154596	88.798849036822	681
7	154721	88.866933730378	682
7	154722	88.869226192761	683
7	154852	88.94476797509	682
7	154906	88.970154684932	681
7	154907	88.970270441475	682
7	154931	88.986212585418	683
7	154948	88.996685305509	684
7	154949	88.998068737295	685
7	154950	88.999005708248	686
7	154959	89.000217544595	686
7	154977	89.010154524824	687
7	154985	89.016490634447	688
7	155025	89.043965119093	689
7	155057	89.060068912781	690
7	155075	89.074837882057	691
7	155082	89.079515238104	692
7	155138	89.110010772955	693
7	155205	89.158345019445	692
7	155221	89.165962187012	693
7	155268	89.191870030552	692
7	155319	89.219762949501	693
7	155346	89.236046680706	694
7	155361	89.248514548258	695
7	155423	89.276408974631	696
7	155500	89.32034488376	696
7	155525	89.335633941016	697
7	155526	89.338087470096	698
7	155555	89.350515494162	699
7	155573	89.361865422503	699
7	155625	89.391635528924	699
7	155654	89.409241997984	699
7	155665	89.414228138691	700
7	155808	89.492259424638	698
7	155935	89.559501109903	695
7	155944	89.560084260959	696
7	155982	89.58539710308	696
7	156049	89.622572382796	696
7	156057	89.626979004172	697
7	156077	89.636925458277	698
7	156114	89.655043888057	698
7	156164	89.686754831299	699
7	156172	89.692601340618	700
7	156202	89.706948293099	700
7	156221	89.718738752246	701
7	156241	89.725495516477	702
7	156270	89.745170434579	702
7	156281	89.754585004964	703
7	156327	89.784803172531	704
7	156337	89.789745151415	705
7	156347	89.79261837699	706
7	156357	89.797224665427	706
7	156542	89.904921358798	702
7	156553	89.906775948192	703
7	156631	89.956878626113	703
7	156702	89.999822850959	702
7	156718	90.005765687873	702
7	156847	90.076966090946	702
7	156856	90.080210356953	703
7	156881	90.097111854131	703
7	156923	90.120166267655	703
7	156933	90.126974664427	703
7	156959	90.144573083167	704
7	157012	90.172513705731	703
7	157093	90.219047826231	704
7	157125	90.23517374775	703
7	157145	90.248789882662	703
7	157259	90.314490975299	704
7	157269	90.317293991896	705
7	157270	90.318105378562	706
7	157300	90.33009297602	705
7	157344	90.356313622571	704
7	157363	90.365782760135	705
7	157373	90.374102384325	706
7	157383	90.377201735578	707
7	157394	90.384454457053	707
7	157543	90.465539521891	706
7	157544	90.46625091174	707
7	157545	90.466339169244	708
7	157577	90.481035819179	707
7	157636	90.517282872073	706
7	157652	90.526970962252	707
7	157653	90.527174867713	708
7	157776	90.591971118398	708
7	157790	90.599115663179	709
7	157825	90.616208327937	709
7	157851	90.633983862315	710
7	157911	90.6605756691	710
7	157976	90.69894317835	710
7	157997	90.70998485745	711
7	158006	90.713309049467	712
7	158065	90.740889499053	713
7	158066	90.741817949135	714
7	158101	90.764079814722	715
7	158102	90.764196340488	716
7	158235	90.841736827066	714
7	158236	90.842135543294	715
7	158330	90.896408184733	713
7	158489	90.981275238241	710
7	158490	90.981548715282	711
7	158601	91.041060990295	710
7	158602	91.04129754001	711
7	158656	91.07166980388	712
7	158666	91.078269504762	713
7	158668	91.079322760242	714
7	158747	91.122120991303	713
7	158844	91.182457684404	712
7	158867	91.197594896086	712
7	158915	91.227843136373	712
7	158975	91.260869687072	711
7	159074	91.315481262465	710
7	159075	91.315715287399	711
7	159140	91.352799853736	709
7	159148	91.358159731869	710
7	159163	91.366509161165	711
7	159192	91.388211214777	712
7	159210	91.398683952522	713
7	159287	91.439472397609	712
7	159328	91.45612586756	712
7	159355	91.473471897265	711
7	159394	91.493227848551	711
7	159433	91.513186070596	710
7	159517	91.561524622316	710
7	159662	91.645940841582	708
7	159663	91.646250137226	709
7	159737	91.685631936636	710
7	159761	91.704884436439	711
7	159914	91.786930599239	709
7	159971	91.817974494367	710
7	160044	91.863402463762	709
7	160054	91.867888875418	709
7	160062	91.871824977748	710
7	160088	91.889706092893	711
7	160095	91.891436111744	712
7	160178	91.943143485737	712
7	160186	91.946480013814	713
7	160234	91.970157663126	713
7	160243	91.976092883087	714
7	160273	91.995718089112	715
7	160298	92.012194392974	714
7	160357	92.046077193394	714
7	160370	92.05437289303	715
7	160470	92.107437144001	712
7	160500	92.12443298343	711
7	160518	92.134486384004	710
7	160563	92.156019813926	709
7	160612	92.18752628534	710
7	160647	92.206447780223	710
7	160679	92.22873326928	711
7	160729	92.255645582121	712
7	160778	92.286140914723	713
7	160779	92.288190794345	714
7	160825	92.312963331274	715
7	160847	92.32706653553	716
7	160985	92.413739006891	714
7	161037	92.44130200718	715
7	161081	92.46993797931	715
7	161118	92.49026769863	716
7	161119	92.491397746022	717
7	161130	92.497028553486	718
7	161174	92.524527887577	719
7	161213	92.546224210131	720
7	161265	92.579401154811	721
7	161303	92.595736885904	721
7	161311	92.601246039275	722
7	161347	92.621371459333	723
7	161495	92.712064562819	723
7	161570	92.750914454523	720
7	161580	92.757878156626	721
7	161628	92.780103246248	721
7	161629	92.782869280125	722
7	161708	92.827392507525	723
7	161729	92.840296659083	724
7	161761	92.857257850443	724
7	161857	92.91243424926	722
7	161866	92.916906304143	723
7	161901	92.937517510708	724
7	161993	92.992336990676	723
7	162162	93.08367806029	720
7	162179	93.092001366633	721
7	162241	93.127497507063	720
7	162252	93.134086117806	721
7	162371	93.196046578037	719
7	162402	93.213278184517	719
7	162431	93.226360409009	720
7	162478	93.251895975029	721
7	162600	93.323381953572	719
7	162624	93.335195915852	720
7	162626	93.339921997181	721
7	162727	93.388228540715	719
7	162745	93.398174760649	720
7	162778	93.415397729523	720
7	162796	93.427293168857	720
7	162853	93.461680921921	721
7	162866	93.470864906461	722
7	162926	93.510716027568	723
7	162927	93.512610218529	724
7	162961	93.530038495194	725
7	162993	93.549939428798	726
7	163020	93.563167118324	727
7	163042	93.570221891537	727
7	163062	93.584394115209	728
7	163097	93.603389530304	728
7	163175	93.649114027527	727
7	163216	93.670280387168	728
7	163253	93.69209803825	729
7	163367	93.761646851188	729
7	163379	93.766671216441	729
7	163405	93.781306738426	729
7	163443	93.800841057183	730
7	163516	93.845185212013	731
7	163568	93.875751789907	731
7	163592	93.887614019219	732
7	163614	93.897337255697	733
7	163624	93.902419821724	734
7	163728	93.965320839194	733
7	163738	93.974129531643	734
7	163855	94.04510415169	734
7	163865	94.053857935623	735
7	164031	94.147352196428	732
7	164041	94.154809455053	733
7	164067	94.166523664795	734
7	164068	94.167844967084	735
7	164069	94.168820833484	736
7	164079	94.174662471828	737
7	164137	94.205859213075	735
7	164148	94.212942780174	736
7	164172	94.226274148602	737
7	164181	94.232624694226	738
7	164220	94.258593151024	738
7	164304	94.305028030796	737
7	164322	94.318619664433	738
7	164323	94.319972790623	739
7	164342	94.325302405077	740
7	164424	94.370184611699	738
7	164447	94.383751861663	739
7	164475	94.395688837604	739
7	164660	94.500896442344	732
7	164743	94.546061437484	731
7	164754	94.551564946911	732
7	164769	94.564966735647	733
7	164791	94.578205629851	734
7	164900	94.635634789065	733
7	164919	94.647937806589	734
7	164973	94.675029369252	732
7	164975	94.679090154146	733
7	165060	94.722090612589	732
7	165104	94.745749044377	733
7	165195	94.800374046735	732
7	165258	94.835903515526	732
7	165265	94.84218196109	733
7	165346	94.89191716421	734
7	165365	94.90154332081	735
7	165443	94.942937426918	733
7	165458	94.950079478084	734
7	165478	94.961747915383	735
7	165499	94.970695605084	735
7	165508	94.975563457408	736
7	165568	95.017576520612	736
7	165570	95.019381001688	737
7	165708	95.086223765912	733
7	165778	95.120731502233	733
7	165800	95.137636887044	734
7	165820	95.145470610703	735
7	165855	95.166306239101	736
7	165856	95.168432759494	737
7	165857	95.169697244136	738
7	165893	95.18792055096	739
7	166052	95.282921001494	738
7	166121	95.321297182349	736
7	166163	95.347239958554	737
7	166193	95.364400851409	737
7	166215	95.370674646442	737
7	166235	95.382221852118	737
7	166328	95.439650296362	737
7	166339	95.441895700635	738
7	166342	95.443359286794	739
7	166369	95.456488117735	740
7	166397	95.472436483854	741
7	166406	95.475016017081	742
7	166444	95.497528086732	743
7	166452	95.502719665071	744
7	166493	95.528795481079	745
7	166517	95.542460007259	745
7	166540	95.555866448358	745
7	166661	95.630960238983	745
7	166664	95.634166860687	746
7	166672	95.639561082778	747
7	166722	95.662232371867	746
7	166748	95.67617170035	747
7	166864	95.748315355859	748
7	166937	95.794047526179	746
7	167044	95.848550353841	746
7	167055	95.851504020882	747
7	167166	95.917034312888	747
7	167200	95.930023206206	748
7	167209	95.936786533727	748
7	167235	95.95460259767	749
7	167252	95.962149616045	750
7	167253	95.964727075596	751
7	167306	95.998454002058	752
7	167407	96.049004166807	750
7	167460	96.077027843334	751
7	167490	96.093531729226	752
7	167535	96.115378267418	753
7	167536	96.115543639937	754
7	167561	96.133577838244	755
7	167587	96.146339655809	755
7	167626	96.168543253097	755
7	167643	96.176824289207	754
7	167645	96.177610314223	755
7	167725	96.229450256616	756
7	167758	96.248032684173	756
7	167838	96.285073110206	755
7	167850	96.292457354563	756
7	167866	96.300279762696	756
7	167936	96.343476366242	754
7	168165	96.477970234609	752
7	168183	96.48760966996	753
7	168190	96.494973035148	754
7	168232	96.516358315381	755
7	168293	96.553253508527	754
7	168431	96.6304640671	753
7	168432	96.634709499809	754
7	168486	96.661423692353	754
7	168496	96.669396760712	755
7	168503	96.671869159932	756
7	168591	96.716417412785	755
7	168664	96.757338765654	755
7	168696	96.779770106706	756
7	168789	96.83307248726	756
7	168831	96.859934023223	757
7	168855	96.871106811139	758
7	168897	96.895781253811	759
7	168951	96.933045523097	759
7	169034	96.975983341176	759
7	169086	97.002077930111	757
7	169105	97.010700528966	758
7	169122	97.020791005513	759
7	169170	97.050169450594	759
7	169196	97.065717671974	759
7	169231	97.086471473864	760
7	169262	97.101741113214	761
7	169263	97.104728297195	762
7	169310	97.129641220868	761
7	169359	97.153534100138	761
7	169411	97.184968614492	761
7	169453	97.204422272108	762
7	169474	97.210639795323	763
7	169514	97.235173303452	764
7	169624	97.297820568035	762
7	169642	97.309603520036	763
7	169650	97.310355737105	764
7	169660	97.319219316936	765
7	169670	97.321540391272	766
7	169671	97.323027315599	767
7	169698	97.336497802019	768
7	169726	97.351019062066	769
7	169744	97.364097864243	769
7	169769	97.375923969252	770
7	169812	97.402778039769	771
7	169832	97.410635465546	772
7	169880	97.444199617466	772
7	169894	97.450567641254	773
7	169895	97.450930127442	774
7	169919	97.460161076836	774
7	169935	97.470002841183	775
7	169950	97.482829397127	776
7	170013	97.518404903806	774
7	170186	97.622391451497	771
7	170237	97.654170841717	771
7	170269	97.673387943934	772
7	170293	97.68802318209	773
7	170329	97.708038509793	772
7	170339	97.710439843382	773
7	170364	97.729377763602	774
7	170374	97.734845711564	775
7	170390	97.742357881844	776
7	170475	97.792981687623	776
7	170513	97.810275802978	777
7	170526	97.820021012494	778
7	170533	97.825423717974	779
7	170610	97.871052052534	780
7	170620	97.876380267822	781
7	170654	97.89826989047	782
7	170670	97.905821478354	783
7	170740	97.949855496574	783
7	170866	98.024352098204	781
7	170877	98.026277189989	782
7	170964	98.079897592666	781
7	170996	98.096756827123	782
7	171021	98.111357259701	782
7	171053	98.130765673886	781
7	171098	98.160429503535	781
7	171162	98.196655657268	780
7	171237	98.243186461439	780
7	171238	98.244891410512	781
7	171260	98.257439185676	782
7	171306	98.284424165019	783
7	171351	98.308039366792	784
7	171386	98.329687594193	785
7	171411	98.341779028205	784
7	171575	98.437389635206	780
7	171576	98.437457642779	781
7	171585	98.442943091768	781
7	171632	98.465491561923	782
7	171745	98.532338304401	777
7	171792	98.555754987817	778
7	171800	98.562267403752	779
7	171880	98.609117591572	779
7	171897	98.616703143944	780
7	172037	98.70078376974	779
7	172084	98.728470324441	778
7	172108	98.740787742051	779
7	172146	98.769046485107	779
7	172165	98.776136788731	780
7	172191	98.794347169628	780
7	172229	98.81443751265	780
7	172372	98.893598311788	778
7	172424	98.92735396585	777
7	172434	98.931908979046	778
7	172444	98.939559531179	779
7	172452	98.940730547676	780
7	172540	98.985395153246	779
7	172653	99.046000282208	779
7	172721	99.081096307366	779
7	172813	99.128046779272	776
7	172815	99.129456319697	777
7	172833	99.137377438734	776
7	172920	99.182230831716	776
7	172945	99.199012688418	777
7	173007	99.233411425101	777
7	173036	99.245590288094	777
7	173037	99.246962537557	778
7	173094	99.283203171455	778
7	173107	99.286341014118	778
7	173108	99.286397337345	779
7	173161	99.316082058365	780
7	173163	99.319109053745	781
7	173181	99.326708261956	781
7	173233	99.359956323468	780
7	173274	99.380437440245	781
7	173275	99.383583272012	782
7	173276	99.384185144866	783
7	173309	99.400058993375	784
7	173365	99.434543748116	784
7	173401	99.455706650329	785
7	173429	99.472452020928	785
7	173463	99.494142353976	786
7	173473	99.499565298412	787
7	173530	99.530148667999	785
7	173605	99.574222045957	785
7	173635	99.589218147551	786
7	173681	99.613594553844	786
7	173709	99.629568630449	786
7	173719	99.633815288143	787
7	173810	99.684312476202	785
7	173835	99.69904783843	785
7	173843	99.701370239619	786
7	173845	99.702136809337	787
7	173934	99.753969481912	787
7	173935	99.754667445998	788
7	173965	99.770364636057	789
7	174032	99.812116424476	790
7	174096	99.849996402874	790
7	174106	99.852531865639	791
7	174107	99.853525407021	792
7	174132	99.868481749622	793
7	174134	99.869570558986	794
7	174163	99.886977462067	795
7	174196	99.909645418309	796
7	174221	99.923521290268	796
7	174282	99.958979833663	796
7	174299	99.967485055465	797
7	174334	99.986609954185	797
7	174356	99.998154659873	798

