version 2
run strangePeaks-0-20210120-12:37:02-7789
attr configname strangePeaks
attr datetime 20210120-12:37:02
attr experiment strangePeaks
attr inifile omnetpp.ini
attr iterationvars ""
attr iterationvarsf ""
attr measurement ""
attr network slottedNetwork
attr processid 7789
attr repetition 0
attr replication #0
attr resultdir results
attr runnumber 0
attr seedset 0
param **.numTransmitters 10
param **.numChannels 20
param **.sendProbability 1
param **.expMean 5s
param **.timeSlotSize 5s
param **.thresh 20s
param **.deterministicInterarrivalTime true
param **.numTransmitters 1
param **.numChannels 1
param **.sendProbability 1
param **.expMean 5s
param **.timeSlotSize 5s
param **.thresh 20s
param **.deterministicInterarrivalTime false

vector 0 slottedNetwork.transmitters[0] numPacketCreated:vector ETV
attr source numPacketCreatedSignal
vector 1 slottedNetwork.transmitters[0] numPacketOnBuffer:vector ETV
attr source numPacketOnBufferSignal
vector 2 slottedNetwork.transmitters[1] numPacketCreated:vector ETV
attr source numPacketCreatedSignal
vector 3 slottedNetwork.transmitters[1] numPacketOnBuffer:vector ETV
attr source numPacketOnBufferSignal
vector 4 slottedNetwork.transmitters[2] numPacketCreated:vector ETV
attr source numPacketCreatedSignal
vector 5 slottedNetwork.transmitters[2] numPacketOnBuffer:vector ETV
attr source numPacketOnBufferSignal
vector 6 slottedNetwork.transmitters[3] numPacketCreated:vector ETV
attr source numPacketCreatedSignal
vector 7 slottedNetwork.transmitters[3] numPacketOnBuffer:vector ETV
attr source numPacketOnBufferSignal
vector 8 slottedNetwork.transmitters[4] numPacketCreated:vector ETV
attr source numPacketCreatedSignal
vector 9 slottedNetwork.transmitters[4] numPacketOnBuffer:vector ETV
attr source numPacketOnBufferSignal
vector 10 slottedNetwork.transmitters[5] numPacketCreated:vector ETV
attr source numPacketCreatedSignal
vector 11 slottedNetwork.transmitters[5] numPacketOnBuffer:vector ETV
attr source numPacketOnBufferSignal
vector 12 slottedNetwork.transmitters[6] numPacketCreated:vector ETV
attr source numPacketCreatedSignal
vector 13 slottedNetwork.transmitters[6] numPacketOnBuffer:vector ETV
attr source numPacketOnBufferSignal
vector 14 slottedNetwork.transmitters[7] numPacketCreated:vector ETV
attr source numPacketCreatedSignal
vector 15 slottedNetwork.transmitters[7] numPacketOnBuffer:vector ETV
attr source numPacketOnBufferSignal
vector 16 slottedNetwork.transmitters[8] numPacketCreated:vector ETV
attr source numPacketCreatedSignal
vector 17 slottedNetwork.transmitters[8] numPacketOnBuffer:vector ETV
attr source numPacketOnBufferSignal
vector 18 slottedNetwork.transmitters[9] numPacketCreated:vector ETV
attr source numPacketCreatedSignal
vector 19 slottedNetwork.transmitters[9] numPacketOnBuffer:vector ETV
attr source numPacketOnBufferSignal
vector 20 slottedNetwork.ch throughput:vector ETV
attr source throughputSignal
vector 21 slottedNetwork.ch collisions:vector ETV
attr source collisionSignal
vector 22 slottedNetwork.receivers[1] numPacketReceived:vector ETV
attr source numPacketReceivedSignal
vector 23 slottedNetwork.receivers[1] responseTime:vector ETV
attr source responseTimeSignal
vector 24 slottedNetwork.receivers[1] threshold:vector ETV
attr source thresholdSignal
vector 25 slottedNetwork.receivers[2] numPacketReceived:vector ETV
attr source numPacketReceivedSignal
vector 26 slottedNetwork.receivers[2] responseTime:vector ETV
attr source responseTimeSignal
vector 27 slottedNetwork.receivers[2] threshold:vector ETV
attr source thresholdSignal
vector 28 slottedNetwork.receivers[5] numPacketReceived:vector ETV
attr source numPacketReceivedSignal
vector 29 slottedNetwork.receivers[5] responseTime:vector ETV
attr source responseTimeSignal
vector 30 slottedNetwork.receivers[5] threshold:vector ETV
attr source thresholdSignal
vector 31 slottedNetwork.receivers[8] numPacketReceived:vector ETV
attr source numPacketReceivedSignal
vector 32 slottedNetwork.receivers[8] responseTime:vector ETV
attr source responseTimeSignal
vector 33 slottedNetwork.receivers[8] threshold:vector ETV
attr source thresholdSignal
vector 34 slottedNetwork.receivers[9] numPacketReceived:vector ETV
attr source numPacketReceivedSignal
vector 35 slottedNetwork.receivers[9] responseTime:vector ETV
attr source responseTimeSignal
vector 36 slottedNetwork.receivers[9] threshold:vector ETV
attr source thresholdSignal
vector 37 slottedNetwork.receivers[4] numPacketReceived:vector ETV
attr source numPacketReceivedSignal
vector 38 slottedNetwork.receivers[4] responseTime:vector ETV
attr source responseTimeSignal
vector 39 slottedNetwork.receivers[4] threshold:vector ETV
attr source thresholdSignal
vector 40 slottedNetwork.receivers[6] numPacketReceived:vector ETV
attr source numPacketReceivedSignal
vector 41 slottedNetwork.receivers[6] responseTime:vector ETV
attr source responseTimeSignal
vector 42 slottedNetwork.receivers[6] threshold:vector ETV
attr source thresholdSignal
vector 43 slottedNetwork.receivers[0] numPacketReceived:vector ETV
attr source numPacketReceivedSignal
vector 44 slottedNetwork.receivers[0] responseTime:vector ETV
attr source responseTimeSignal
vector 45 slottedNetwork.receivers[0] threshold:vector ETV
attr source thresholdSignal
vector 46 slottedNetwork.receivers[7] numPacketReceived:vector ETV
attr source numPacketReceivedSignal
vector 47 slottedNetwork.receivers[7] responseTime:vector ETV
attr source responseTimeSignal
vector 48 slottedNetwork.receivers[7] threshold:vector ETV
attr source thresholdSignal
vector 49 slottedNetwork.receivers[3] numPacketReceived:vector ETV
attr source numPacketReceivedSignal
vector 50 slottedNetwork.receivers[3] responseTime:vector ETV
attr source responseTimeSignal
vector 51 slottedNetwork.receivers[3] threshold:vector ETV
attr source thresholdSignal
0	1	5	1
0	32	10	1
0	63	15	1
0	94	20	1
0	127	25	1
0	163	30	1
0	196	35	1
0	231	40	1
0	260	45	1
0	286	50	1
0	311	55	1
0	341	60	1
0	375	65	1
0	411	70	1
0	444	75	1
0	474	80	1
0	506	85	1
0	540	90	1
0	573	95	1
0	609	100	1
0	647	105	1
0	682	110	1
0	710	115	1
0	739	120	1
0	771	125	1
0	803	130	1
0	837	135	1
0	866	140	1
0	894	145	1
0	924	150	1
0	949	155	1
0	977	160	1
0	1005	165	1
0	1036	170	1
0	1071	175	1
0	1109	180	1
0	1140	185	1
0	1167	190	1
0	1194	195	1
0	1224	200	1
0	1255	205	1
0	1289	210	1
0	1325	215	1
0	1359	220	1
0	1391	225	1
0	1421	230	1
0	1454	235	1
0	1492	240	1
0	1523	245	1
0	1554	250	1
0	1585	255	1
0	1614	260	1
0	1646	265	1
0	1682	270	1
0	1713	275	1
0	1745	280	1
0	1774	285	1
0	1800	290	1
0	1828	295	1
0	1858	300	1
0	1883	305	1
0	1909	310	1
0	1940	315	1
0	1975	320	1
0	2007	325	1
0	2033	330	1
0	2061	335	1
0	2092	340	1
0	2122	345	1
0	2155	350	1
0	2192	355	1
0	2224	360	1
0	2253	365	1
0	2282	370	1
0	2311	375	1
0	2338	380	1
0	2371	385	1
0	2403	390	1
0	2436	395	1
0	2466	400	1
0	2494	405	1
0	2523	410	1
0	2550	415	1
0	2581	420	1
0	2615	425	1
0	2647	430	1
0	2681	435	1
0	2713	440	1
0	2747	445	1
0	2779	450	1
0	2813	455	1
0	2842	460	1
0	2873	465	1
0	2901	470	1
0	2930	475	1
0	2956	480	1
0	2986	485	1
0	3019	490	1
0	3049	495	1
0	3080	500	1
0	3111	505	1
0	3142	510	1
0	3170	515	1
0	3197	520	1
0	3224	525	1
0	3249	530	1
0	3276	535	1
0	3310	540	1
0	3345	545	1
0	3381	550	1
0	3414	555	1
0	3444	560	1
0	3476	565	1
0	3505	570	1
0	3536	575	1
0	3566	580	1
0	3597	585	1
0	3629	590	1
0	3659	595	1
0	3691	600	1
0	3721	605	1
0	3752	610	1
0	3783	615	1
0	3818	620	1
0	3849	625	1
0	3876	630	1
0	3900	635	1
0	3926	640	1
0	3949	645	1
0	3975	650	1
0	4005	655	1
0	4039	660	1
0	4072	665	1
0	4101	670	1
0	4128	675	1
0	4155	680	1
0	4185	685	1
0	4218	690	1
0	4253	695	1
0	4285	700	1
0	4318	705	1
0	4346	710	1
0	4376	715	1
0	4408	720	1
0	4443	725	1
0	4476	730	1
0	4507	735	1
0	4540	740	1
0	4571	745	1
0	4601	750	1
0	4633	755	1
0	4669	760	1
0	4700	765	1
0	4732	770	1
0	4766	775	1
0	4798	780	1
0	4832	785	1
0	4864	790	1
0	4890	795	1
0	4916	800	1
0	4941	805	1
0	4967	810	1
0	4997	815	1
0	5031	820	1
0	5059	825	1
0	5088	830	1
0	5117	835	1
0	5142	840	1
0	5170	845	1
0	5204	850	1
0	5237	855	1
0	5267	860	1
0	5298	865	1
0	5325	870	1
0	5353	875	1
0	5381	880	1
0	5408	885	1
0	5438	890	1
0	5463	895	1
0	5489	900	1
0	5512	905	1
0	5537	910	1
0	5567	915	1
0	5598	920	1
0	5628	925	1
0	5661	930	1
0	5692	935	1
0	5724	940	1
0	5757	945	1
0	5784	950	1
0	5813	955	1
0	5843	960	1
0	5875	965	1
0	5900	970	1
0	5928	975	1
0	5955	980	1
0	5984	985	1
0	6017	990	1
0	6048	995	1
0	6075	1000	1
0	6103	1005	1
0	6133	1010	1
0	6166	1015	1
0	6198	1020	1
0	6231	1025	1
0	6264	1030	1
0	6293	1035	1
0	6318	1040	1
0	6345	1045	1
0	6374	1050	1
0	6404	1055	1
0	6433	1060	1
0	6461	1065	1
0	6490	1070	1
0	6520	1075	1
0	6552	1080	1
0	6582	1085	1
0	6606	1090	1
0	6633	1095	1
0	6660	1100	1
0	6691	1105	1
0	6720	1110	1
0	6752	1115	1
0	6781	1120	1
0	6810	1125	1
0	6836	1130	1
0	6860	1135	1
0	6886	1140	1
0	6915	1145	1
0	6946	1150	1
0	6976	1155	1
0	7009	1160	1
0	7042	1165	1
0	7076	1170	1
0	7103	1175	1
0	7127	1180	1
0	7153	1185	1
0	7177	1190	1
0	7206	1195	1
0	7236	1200	1
0	7268	1205	1
0	7297	1210	1
0	7328	1215	1
0	7357	1220	1
0	7389	1225	1
0	7416	1230	1
0	7444	1235	1
0	7470	1240	1
0	7499	1245	1
0	7525	1250	1
0	7552	1255	1
0	7578	1260	1
0	7606	1265	1
0	7637	1270	1
0	7673	1275	1
0	7700	1280	1
0	7727	1285	1
0	7753	1290	1
0	7783	1295	1
0	7815	1300	1
0	7850	1305	1
0	7883	1310	1
0	7914	1315	1
0	7944	1320	1
0	7972	1325	1
0	8001	1330	1
0	8029	1335	1
0	8062	1340	1
0	8093	1345	1
0	8124	1350	1
0	8156	1355	1
0	8186	1360	1
0	8218	1365	1
0	8252	1370	1
0	8283	1375	1
0	8311	1380	1
0	8342	1385	1
0	8371	1390	1
0	8401	1395	1
0	8426	1400	1
0	8454	1405	1
0	8483	1410	1
0	8515	1415	1
0	8551	1420	1
0	8583	1425	1
0	8616	1430	1
0	8642	1435	1
0	8669	1440	1
0	8699	1445	1
0	8729	1450	1
0	8756	1455	1
0	8786	1460	1
0	8815	1465	1
0	8842	1470	1
0	8872	1475	1
0	8899	1480	1
0	8928	1485	1
0	8956	1490	1
0	8987	1495	1
0	9020	1500	1
0	9055	1505	1
0	9088	1510	1
0	9118	1515	1
0	9146	1520	1
0	9175	1525	1
0	9206	1530	1
0	9241	1535	1
0	9275	1540	1
0	9306	1545	1
0	9337	1550	1
0	9371	1555	1
0	9403	1560	1
0	9437	1565	1
0	9469	1570	1
0	9498	1575	1
0	9523	1580	1
0	9549	1585	1
0	9579	1590	1
0	9613	1595	1
0	9647	1600	1
0	9680	1605	1
0	9713	1610	1
0	9743	1615	1
0	9771	1620	1
0	9797	1625	1
0	9826	1630	1
0	9859	1635	1
0	9895	1640	1
0	9929	1645	1
0	9960	1650	1
0	9992	1655	1
0	10021	1660	1
0	10052	1665	1
0	10086	1670	1
0	10111	1675	1
0	10138	1680	1
0	10165	1685	1
0	10196	1690	1
0	10230	1695	1
0	10263	1700	1
0	10292	1705	1
0	10322	1710	1
0	10354	1715	1
0	10380	1720	1
0	10404	1725	1
0	10431	1730	1
0	10458	1735	1
0	10488	1740	1
0	10522	1745	1
0	10556	1750	1
0	10587	1755	1
0	10616	1760	1
0	10643	1765	1
0	10668	1770	1
0	10692	1775	1
0	10718	1780	1
0	10748	1785	1
0	10782	1790	1
0	10818	1795	1
0	10847	1800	1
0	10877	1805	1
0	10904	1810	1
0	10933	1815	1
0	10958	1820	1
0	10985	1825	1
0	11014	1830	1
0	11046	1835	1
0	11080	1840	1
0	11108	1845	1
0	11137	1850	1
0	11164	1855	1
0	11190	1860	1
0	11214	1865	1
0	11240	1870	1
0	11268	1875	1
0	11298	1880	1
0	11330	1885	1
0	11356	1890	1
0	11383	1895	1
0	11411	1900	1
0	11442	1905	1
0	11476	1910	1
0	11512	1915	1
0	11541	1920	1
0	11570	1925	1
0	11596	1930	1
0	11624	1935	1
0	11650	1940	1
0	11679	1945	1
0	11705	1950	1
0	11733	1955	1
0	11759	1960	1
0	11787	1965	1
0	11817	1970	1
0	11846	1975	1
0	11877	1980	1
0	11909	1985	1
0	11937	1990	1
0	11968	1995	1
0	11996	2000	1
0	12026	2005	1
0	12059	2010	1
0	12089	2015	1
0	12121	2020	1
0	12151	2025	1
0	12182	2030	1
0	12215	2035	1
0	12246	2040	1
0	12273	2045	1
0	12301	2050	1
0	12332	2055	1
0	12367	2060	1
0	12396	2065	1
0	12426	2070	1
0	12455	2075	1
0	12482	2080	1
0	12510	2085	1
0	12541	2090	1
0	12574	2095	1
0	12601	2100	1
0	12631	2105	1
0	12659	2110	1
0	12689	2115	1
0	12717	2120	1
0	12747	2125	1
0	12780	2130	1
0	12811	2135	1
0	12843	2140	1
0	12872	2145	1
0	12903	2150	1
0	12933	2155	1
0	12961	2160	1
0	12990	2165	1
0	13022	2170	1
0	13058	2175	1
0	13091	2180	1
0	13124	2185	1
0	13153	2190	1
0	13179	2195	1
0	13207	2200	1
0	13234	2205	1
0	13264	2210	1
0	13296	2215	1
0	13330	2220	1
0	13362	2225	1
0	13396	2230	1
0	13425	2235	1
0	13453	2240	1
0	13484	2245	1
0	13518	2250	1
0	13550	2255	1
0	13581	2260	1
0	13608	2265	1
0	13636	2270	1
0	13667	2275	1
0	13703	2280	1
0	13731	2285	1
0	13760	2290	1
0	13792	2295	1
0	13828	2300	1
0	13858	2305	1
0	13880	2310	1
0	13904	2315	1
0	13932	2320	1
0	13966	2325	1
0	13998	2330	1
0	14031	2335	1
0	14065	2340	1
0	14101	2345	1
0	14135	2350	1
0	14166	2355	1
0	14193	2360	1
0	14221	2365	1
0	14251	2370	1
0	14286	2375	1
0	14317	2380	1
0	14345	2385	1
0	14371	2390	1
0	14400	2395	1
0	14432	2400	1
0	14459	2405	1
0	14485	2410	1
0	14513	2415	1
0	14542	2420	1
0	14575	2425	1
0	14605	2430	1
0	14632	2435	1
0	14661	2440	1
0	14692	2445	1
0	14724	2450	1
0	14755	2455	1
0	14788	2460	1
0	14819	2465	1
0	14852	2470	1
0	14882	2475	1
0	14913	2480	1
0	14942	2485	1
0	14974	2490	1
0	15009	2495	1
0	15046	2500	1
0	15080	2505	1
0	15108	2510	1
0	15137	2515	1
0	15163	2520	1
0	15186	2525	1
0	15211	2530	1
0	15241	2535	1
0	15272	2540	1
0	15299	2545	1
0	15329	2550	1
0	15360	2555	1
0	15393	2560	1
0	15425	2565	1
0	15452	2570	1
0	15480	2575	1
0	15510	2580	1
0	15538	2585	1
0	15566	2590	1
0	15595	2595	1
0	15617	2600	1
0	15643	2605	1
0	15670	2610	1
0	15696	2615	1
0	15724	2620	1
0	15755	2625	1
0	15788	2630	1
0	15821	2635	1
0	15854	2640	1
0	15888	2645	1
0	15920	2650	1
0	15950	2655	1
0	15981	2660	1
0	16008	2665	1
0	16035	2670	1
0	16065	2675	1
0	16099	2680	1
0	16131	2685	1
0	16156	2690	1
0	16183	2695	1
0	16212	2700	1
0	16238	2705	1
0	16268	2710	1
0	16299	2715	1
0	16329	2720	1
0	16357	2725	1
0	16387	2730	1
0	16415	2735	1
0	16445	2740	1
0	16477	2745	1
0	16503	2750	1
0	16530	2755	1
0	16558	2760	1
0	16591	2765	1
0	16628	2770	1
0	16665	2775	1
0	16696	2780	1
0	16727	2785	1
0	16759	2790	1
0	16787	2795	1
0	16818	2800	1
0	16848	2805	1
0	16877	2810	1
0	16909	2815	1
0	16938	2820	1
0	16970	2825	1
0	17003	2830	1
0	17038	2835	1
0	17071	2840	1
0	17102	2845	1
0	17134	2850	1
0	17167	2855	1
0	17201	2860	1
0	17234	2865	1
0	17269	2870	1
0	17301	2875	1
0	17335	2880	1
0	17367	2885	1
0	17388	2890	1
0	17411	2895	1
0	17438	2900	1
0	17468	2905	1
0	17502	2910	1
0	17534	2915	1
0	17568	2920	1
0	17601	2925	1
0	17632	2930	1
0	17663	2935	1
0	17694	2940	1
0	17725	2945	1
0	17760	2950	1
0	17796	2955	1
0	17829	2960	1
0	17859	2965	1
0	17884	2970	1
0	17911	2975	1
0	17943	2980	1
0	17979	2985	1
0	18016	2990	1
0	18050	2995	1
0	18078	3000	1
0	18108	3005	1
0	18133	3010	1
0	18158	3015	1
0	18185	3020	1
0	18217	3025	1
0	18246	3030	1
0	18277	3035	1
0	18308	3040	1
0	18337	3045	1
0	18364	3050	1
0	18394	3055	1
0	18424	3060	1
0	18456	3065	1
0	18490	3070	1
0	18526	3075	1
0	18561	3080	1
0	18586	3085	1
0	18611	3090	1
0	18637	3095	1
0	18666	3100	1
0	18697	3105	1
0	18732	3110	1
0	18767	3115	1
0	18799	3120	1
0	18829	3125	1
0	18860	3130	1
0	18888	3135	1
0	18918	3140	1
0	18951	3145	1
0	18984	3150	1
0	19015	3155	1
0	19047	3160	1
0	19080	3165	1
0	19114	3170	1
0	19149	3175	1
0	19185	3180	1
0	19217	3185	1
0	19250	3190	1
0	19279	3195	1
0	19306	3200	1
0	19336	3205	1
0	19364	3210	1
0	19394	3215	1
0	19425	3220	1
0	19460	3225	1
0	19487	3230	1
0	19514	3235	1
0	19541	3240	1
0	19569	3245	1
0	19600	3250	1
0	19637	3255	1
0	19670	3260	1
0	19699	3265	1
0	19728	3270	1
0	19756	3275	1
0	19788	3280	1
0	19822	3285	1
0	19852	3290	1
0	19879	3295	1
0	19906	3300	1
0	19932	3305	1
0	19962	3310	1
0	19995	3315	1
0	20027	3320	1
0	20057	3325	1
0	20085	3330	1
0	20115	3335	1
0	20147	3340	1
0	20177	3345	1
0	20208	3350	1
0	20237	3355	1
0	20269	3360	1
0	20300	3365	1
0	20330	3370	1
0	20356	3375	1
0	20384	3380	1
0	20409	3385	1
0	20436	3390	1
0	20461	3395	1
0	20487	3400	1
0	20512	3405	1
0	20541	3410	1
0	20570	3415	1
0	20603	3420	1
0	20638	3425	1
0	20669	3430	1
0	20700	3435	1
0	20734	3440	1
0	20765	3445	1
0	20792	3450	1
0	20816	3455	1
0	20843	3460	1
0	20868	3465	1
0	20895	3470	1
0	20927	3475	1
0	20958	3480	1
0	20989	3485	1
0	21021	3490	1
0	21051	3495	1
0	21084	3500	1
0	21119	3505	1
0	21151	3510	1
0	21180	3515	1
0	21206	3520	1
0	21235	3525	1
0	21267	3530	1
0	21303	3535	1
0	21342	3540	1
0	21369	3545	1
0	21396	3550	1
0	21423	3555	1
0	21452	3560	1
0	21487	3565	1
0	21522	3570	1
0	21553	3575	1
0	21581	3580	1
0	21606	3585	1
0	21633	3590	1
0	21662	3595	1
0	21694	3600	1
1	1	5	1
1	12	5	1
1	32	10	2
1	43	10	2
1	63	15	3
1	84	15	3
1	94	20	4
1	115	20	4
1	127	25	5
1	152	25	5
1	163	30	6
1	186	30	5
1	196	35	6
1	217	35	5
1	231	40	6
1	250	40	6
1	260	45	7
1	277	45	7
1	286	50	8
1	301	50	8
1	311	55	9
1	324	55	8
1	341	60	9
1	354	60	8
1	375	65	9
1	388	65	8
1	411	70	9
1	424	70	9
1	444	75	10
1	465	75	10
1	474	80	11
1	495	80	11
1	506	85	12
1	527	85	11
1	540	90	12
1	559	90	11
1	573	95	12
1	590	95	11
1	609	100	12
1	626	100	11
1	647	105	12
1	662	105	11
1	682	110	12
1	695	110	12
1	710	115	13
1	729	115	13
1	739	120	14
1	758	120	14
1	771	125	15
1	788	125	14
1	803	130	15
1	818	130	14
1	837	135	15
1	850	135	15
1	866	140	16
1	885	140	16
1	894	145	17
1	913	145	17
1	924	150	18
1	940	150	17
1	949	155	18
1	962	155	17
1	977	160	18
1	990	160	18
1	1005	165	19
1	1024	165	19
1	1036	170	20
1	1059	170	20
1	1071	175	21
1	1094	175	20
1	1109	180	21
1	1129	180	21
1	1140	185	22
1	1159	185	22
1	1167	190	23
1	1184	190	23
1	1194	195	24
1	1211	195	24
1	1224	200	25
1	1245	200	25
1	1255	205	26
1	1278	205	26
1	1289	210	27
1	1312	210	26
1	1325	215	27
1	1347	215	26
1	1359	220	27
1	1378	220	26
1	1391	225	27
1	1407	225	27
1	1421	230	28
1	1442	230	28
1	1454	235	29
1	1479	235	29
1	1492	240	30
1	1514	240	29
1	1523	245	30
1	1542	245	29
1	1554	250	30
1	1573	250	29
1	1585	255	30
1	1602	255	29
1	1614	260	30
1	1629	260	29
1	1646	265	30
1	1661	265	29
1	1682	270	30
1	1696	270	30
1	1713	275	31
1	1734	275	31
1	1745	280	32
1	1766	280	32
1	1774	285	33
1	1791	285	33
1	1800	290	34
1	1817	290	34
1	1828	295	35
1	1845	295	35
1	1858	300	36
1	1871	300	36
1	1883	305	37
1	1898	305	37
1	1909	310	38
1	1926	310	38
1	1940	315	39
1	1965	315	39
1	1975	320	40
1	1998	320	40
1	2007	325	41
1	2025	325	41
1	2033	330	42
1	2050	330	42
1	2061	335	43
1	2080	335	43
1	2092	340	44
1	2109	340	43
1	2122	345	44
1	2137	345	43
1	2155	350	44
1	2170	350	43
1	2192	355	44
1	2206	355	44
1	2224	360	45
1	2245	360	45
1	2253	365	46
1	2272	365	46
1	2282	370	47
1	2301	370	47
1	2311	375	48
1	2328	375	48
1	2338	380	49
1	2353	380	48
1	2371	385	49
1	2385	385	48
1	2403	390	49
1	2416	390	48
1	2436	395	49
1	2448	395	48
1	2466	400	49
1	2477	400	49
1	2494	405	50
1	2513	405	50
1	2523	410	51
1	2540	410	51
1	2550	415	52
1	2569	415	52
1	2581	420	53
1	2600	420	52
1	2615	425	53
1	2633	425	52
1	2647	430	53
1	2664	430	52
1	2681	435	53
1	2697	435	52
1	2713	440	53
1	2728	440	52
1	2747	445	53
1	2761	445	52
1	2779	450	53
1	2792	450	52
1	2813	455	53
1	2826	455	52
1	2842	460	53
1	2855	460	52
1	2873	465	53
1	2885	465	52
1	2901	470	53
1	2912	470	52
1	2930	475	53
1	2941	475	52
1	2956	480	53
1	2967	480	52
1	2986	485	53
1	2997	485	52
1	3019	490	53
1	3030	490	52
1	3049	495	53
1	3060	495	52
1	3080	500	53
1	3091	500	52
1	3111	505	53
1	3122	505	52
1	3142	510	53
1	3153	510	52
1	3170	515	53
1	3181	515	52
1	3197	520	53
1	3208	520	53
1	3224	525	54
1	3241	525	54
1	3249	530	55
1	3264	530	55
1	3276	535	56
1	3295	535	56
1	3310	540	57
1	3328	540	56
1	3345	545	57
1	3362	545	56
1	3381	550	57
1	3397	550	56
1	3414	555	57
1	3428	555	56
1	3444	560	57
1	3457	560	56
1	3476	565	57
1	3489	565	56
1	3505	570	57
1	3518	570	56
1	3536	575	57
1	3549	575	56
1	3566	580	57
1	3579	580	56
1	3597	585	57
1	3610	585	56
1	3629	590	57
1	3642	590	56
1	3659	595	57
1	3672	595	56
1	3691	600	57
1	3703	600	56
1	3721	605	57
1	3732	605	56
1	3752	610	57
1	3763	610	56
1	3783	615	57
1	3794	615	56
1	3818	620	57
1	3829	620	56
1	3849	625	57
1	3860	625	56
1	3876	630	57
1	3887	630	57
1	3900	635	58
1	3915	635	58
1	3926	640	59
1	3941	640	59
1	3949	645	60
1	3962	645	60
1	3975	650	61
1	3994	650	61
1	4005	655	62
1	4026	655	62
1	4039	660	63
1	4058	660	62
1	4072	665	63
1	4088	665	62
1	4101	670	63
1	4115	670	62
1	4128	675	63
1	4140	675	62
1	4155	680	63
1	4166	680	62
1	4185	685	63
1	4196	685	62
1	4218	690	63
1	4229	690	62
1	4253	695	63
1	4264	695	62
1	4285	700	63
1	4296	700	62
1	4318	705	63
1	4329	705	63
1	4346	710	64
1	4365	710	64
1	4376	715	65
1	4397	715	65
1	4408	720	66
1	4431	720	66
1	4443	725	67
1	4468	725	67
1	4476	730	68
1	4497	730	68
1	4507	735	69
1	4526	735	68
1	4540	740	69
1	4558	740	68
1	4571	745	69
1	4587	745	69
1	4601	750	70
1	4622	750	70
1	4633	755	71
1	4656	755	71
1	4669	760	72
1	4689	760	71
1	4700	765	72
1	4717	765	71
1	4732	770	72
1	4749	770	71
1	4766	775	72
1	4782	775	71
1	4798	780	72
1	4813	780	71
1	4832	785	72
1	4847	785	71
1	4864	790	72
1	4878	790	72
1	4890	795	73
1	4905	795	73
1	4916	800	74
1	4933	800	74
1	4941	805	75
1	4956	805	75
1	4967	810	76
1	4984	810	76
1	4997	815	77
1	5014	815	76
1	5031	820	77
1	5046	820	77
1	5059	825	78
1	5078	825	78
1	5088	830	79
1	5107	830	79
1	5117	835	80
1	5134	835	80
1	5142	840	81
1	5157	840	81
1	5170	845	82
1	5191	845	82
1	5204	850	83
1	5224	850	83
1	5237	855	84
1	5258	855	84
1	5267	860	85
1	5288	860	85
1	5298	865	86
1	5317	865	86
1	5325	870	87
1	5342	870	87
1	5353	875	88
1	5370	875	88
1	5381	880	89
1	5400	880	89
1	5408	885	90
1	5425	885	90
1	5438	890	91
1	5454	890	91
1	5463	895	92
1	5478	895	92
1	5489	900	93
1	5504	900	93
1	5512	905	94
1	5525	905	94
1	5537	910	95
1	5554	910	95
1	5567	915	96
1	5583	915	95
1	5598	920	96
1	5613	920	95
1	5628	925	96
1	5643	925	95
1	5661	930	96
1	5675	930	96
1	5692	935	97
1	5713	935	97
1	5724	940	98
1	5747	940	98
1	5757	945	99
1	5776	945	99
1	5784	950	100
1	5799	950	99
1	5813	955	100
1	5828	955	99
1	5843	960	100
1	5858	960	99
1	5875	965	100
1	5889	965	100
1	5900	970	101
1	5915	970	101
1	5928	975	102
1	5947	975	102
1	5955	980	103
1	5972	980	103
1	5984	985	104
1	6001	985	103
1	6017	990	104
1	6033	990	103
1	6048	995	104
1	6063	995	104
1	6075	1000	105
1	6092	1000	105
1	6103	1005	106
1	6122	1005	106
1	6133	1010	107
1	6154	1010	107
1	6166	1015	108
1	6186	1015	107
1	6198	1020	108
1	6217	1020	107
1	6231	1025	108
1	6250	1025	107
1	6264	1030	108
1	6281	1030	107
1	6293	1035	108
1	6307	1035	107
1	6318	1040	108
1	6331	1040	107
1	6345	1045	108
1	6358	1045	107
1	6374	1050	108
1	6387	1050	107
1	6404	1055	108
1	6417	1055	108
1	6433	1060	109
1	6452	1060	109
1	6461	1065	110
1	6480	1065	110
1	6490	1070	111
1	6509	1070	111
1	6520	1075	112
1	6541	1075	112
1	6552	1080	113
1	6573	1080	113
1	6582	1085	114
1	6598	1085	114
1	6606	1090	115
1	6621	1090	115
1	6633	1095	116
1	6650	1095	116
1	6660	1100	117
1	6679	1100	117
1	6691	1105	118
1	6712	1105	118
1	6720	1110	119
1	6739	1110	119
1	6752	1115	120
1	6770	1115	120
1	6781	1120	121
1	6800	1120	121
1	6810	1125	122
1	6827	1125	122
1	6836	1130	123
1	6851	1130	123
1	6860	1135	124
1	6875	1135	124
1	6886	1140	125
1	6903	1140	125
1	6915	1145	126
1	6936	1145	126
1	6946	1150	127
1	6965	1150	127
1	6976	1155	128
1	6999	1155	128
1	7009	1160	129
1	7032	1160	129
1	7042	1165	130
1	7065	1165	130
1	7076	1170	131
1	7097	1170	131
1	7103	1175	132
1	7118	1175	132
1	7127	1180	133
1	7142	1180	133
1	7153	1185	134
1	7168	1185	134
1	7177	1190	135
1	7192	1190	135
1	7206	1195	136
1	7227	1195	136
1	7236	1200	137
1	7255	1200	136
1	7268	1205	137
1	7285	1205	136
1	7297	1210	137
1	7312	1210	136
1	7328	1215	137
1	7343	1215	137
1	7357	1220	138
1	7376	1220	138
1	7389	1225	139
1	7410	1225	139
1	7416	1230	140
1	7433	1230	140
1	7444	1235	141
1	7460	1235	141
1	7470	1240	142
1	7483	1240	141
1	7499	1245	142
1	7511	1245	142
1	7525	1250	143
1	7542	1250	143
1	7552	1255	144
1	7569	1255	144
1	7578	1260	145
1	7595	1260	145
1	7606	1265	146
1	7625	1265	146
1	7637	1270	147
1	7660	1270	147
1	7673	1275	148
1	7692	1275	148
1	7700	1280	149
1	7717	1280	149
1	7727	1285	150
1	7742	1285	150
1	7753	1290	151
1	7772	1290	151
1	7783	1295	152
1	7804	1295	152
1	7815	1300	153
1	7838	1300	153
1	7850	1305	154
1	7875	1305	154
1	7883	1310	155
1	7904	1310	155
1	7914	1315	156
1	7932	1315	156
1	7944	1320	157
1	7963	1320	157
1	7972	1325	158
1	7991	1325	158
1	8001	1330	159
1	8018	1330	159
1	8029	1335	160
1	8050	1335	160
1	8062	1340	161
1	8085	1340	161
1	8093	1345	162
1	8114	1345	162
1	8124	1350	163
1	8145	1350	163
1	8156	1355	164
1	8177	1355	164
1	8186	1360	165
1	8207	1360	165
1	8218	1365	166
1	8241	1365	166
1	8252	1370	167
1	8275	1370	167
1	8283	1375	168
1	8302	1375	168
1	8311	1380	169
1	8328	1380	168
1	8342	1385	169
1	8358	1385	168
1	8371	1390	169
1	8386	1390	168
1	8401	1395	169
1	8414	1395	169
1	8426	1400	170
1	8443	1400	170
1	8454	1405	171
1	8473	1405	171
1	8483	1410	172
1	8502	1410	172
1	8515	1415	173
1	8540	1415	173
1	8551	1420	174
1	8573	1420	173
1	8583	1425	174
1	8602	1425	173
1	8616	1430	174
1	8633	1430	174
1	8642	1435	175
1	8659	1435	175
1	8669	1440	176
1	8686	1440	176
1	8699	1445	177
1	8720	1445	177
1	8729	1450	178
1	8748	1450	178
1	8756	1455	179
1	8773	1455	179
1	8786	1460	180
1	8801	1460	179
1	8815	1465	180
1	8827	1465	180
1	8842	1470	181
1	8861	1470	181
1	8872	1475	182
1	8891	1475	182
1	8899	1480	183
1	8916	1480	183
1	8928	1485	184
1	8943	1485	183
1	8956	1490	184
1	8969	1490	183
1	8987	1495	184
1	9000	1495	183
1	9020	1500	184
1	9033	1500	183
1	9055	1505	184
1	9068	1505	184
1	9088	1510	185
1	9109	1510	185
1	9118	1515	186
1	9137	1515	186
1	9146	1520	187
1	9163	1520	186
1	9175	1525	187
1	9192	1525	186
1	9206	1530	187
1	9223	1530	186
1	9241	1535	187
1	9258	1535	187
1	9275	1540	188
1	9298	1540	188
1	9306	1545	189
1	9327	1545	189
1	9337	1550	190
1	9358	1550	190
1	9371	1555	191
1	9395	1555	191
1	9403	1560	192
1	9424	1560	191
1	9437	1565	192
1	9456	1565	191
1	9469	1570	192
1	9485	1570	191
1	9498	1575	192
1	9513	1575	192
1	9523	1580	193
1	9538	1580	193
1	9549	1585	194
1	9566	1585	194
1	9579	1590	195
1	9596	1590	194
1	9613	1595	195
1	9629	1595	194
1	9647	1600	195
1	9662	1600	194
1	9680	1605	195
1	9695	1605	194
1	9713	1610	195
1	9728	1610	195
1	9743	1615	196
1	9762	1615	196
1	9771	1620	197
1	9788	1620	197
1	9797	1625	198
1	9814	1625	198
1	9826	1630	199
1	9847	1630	199
1	9859	1635	200
1	9880	1635	199
1	9895	1640	200
1	9915	1640	199
1	9929	1645	200
1	9947	1645	199
1	9960	1650	200
1	9977	1650	199
1	9992	1655	200
1	10009	1655	200
1	10021	1660	201
1	10040	1660	201
1	10052	1665	202
1	10075	1665	202
1	10086	1670	203
1	10105	1670	203
1	10111	1675	204
1	10126	1675	204
1	10138	1680	205
1	10155	1680	205
1	10165	1685	206
1	10180	1685	205
1	10196	1690	206
1	10211	1690	205
1	10230	1695	206
1	10245	1695	205
1	10263	1700	206
1	10276	1700	206
1	10292	1705	207
1	10311	1705	207
1	10322	1710	208
1	10343	1710	208
1	10354	1715	209
1	10373	1715	209
1	10380	1720	210
1	10395	1720	210
1	10404	1725	211
1	10419	1725	211
1	10431	1730	212
1	10446	1730	212
1	10458	1735	213
1	10477	1735	213
1	10488	1740	214
1	10509	1740	214
1	10522	1745	215
1	10541	1745	214
1	10556	1750	215
1	10572	1750	214
1	10587	1755	215
1	10602	1755	215
1	10616	1760	216
1	10635	1760	216
1	10643	1765	217
1	10658	1765	217
1	10668	1770	218
1	10683	1770	218
1	10692	1775	219
1	10707	1775	219
1	10718	1780	220
1	10735	1780	220
1	10748	1785	221
1	10765	1785	220
1	10782	1790	221
1	10799	1790	220
1	10818	1795	221
1	10833	1795	220
1	10847	1800	221
1	10860	1800	220
1	10877	1805	221
1	10889	1805	220
1	10904	1810	221
1	10915	1810	220
1	10933	1815	221
1	10944	1815	221
1	10958	1820	222
1	10975	1820	222
1	10985	1825	223
1	11002	1825	223
1	11014	1830	224
1	11031	1830	223
1	11046	1835	224
1	11063	1835	223
1	11080	1840	224
1	11096	1840	224
1	11108	1845	225
1	11127	1845	225
1	11137	1850	226
1	11154	1850	226
1	11164	1855	227
1	11178	1855	227
1	11190	1860	228
1	11205	1860	228
1	11214	1865	229
1	11229	1865	229
1	11240	1870	230
1	11257	1870	230
1	11268	1875	231
1	11287	1875	231
1	11298	1880	232
1	11319	1880	232
1	11330	1885	233
1	11349	1885	233
1	11356	1890	234
1	11373	1890	234
1	11383	1895	235
1	11400	1895	235
1	11411	1900	236
1	11430	1900	236
1	11442	1905	237
1	11461	1905	236
1	11476	1910	237
1	11495	1910	236
1	11512	1915	237
1	11528	1915	236
1	11541	1920	237
1	11554	1920	236
1	11570	1925	237
1	11583	1925	236
1	11596	1930	237
1	11609	1930	236
1	11624	1935	237
1	11636	1935	236
1	11650	1940	237
1	11661	1940	236
1	11679	1945	237
1	11690	1945	236
1	11705	1950	237
1	11716	1950	236
1	11733	1955	237
1	11744	1955	236
1	11759	1960	237
1	11770	1960	236
1	11787	1965	237
1	11798	1965	236
1	11817	1970	237
1	11828	1970	236
1	11846	1975	237
1	11857	1975	236
1	11877	1980	237
1	11888	1980	236
1	11909	1985	237
1	11920	1985	236
1	11937	1990	237
1	11948	1990	236
1	11968	1995	237
1	11979	1995	236
1	11996	2000	237
1	12007	2000	236
1	12026	2005	237
1	12037	2005	236
1	12059	2010	237
1	12070	2010	236
1	12089	2015	237
1	12100	2015	236
1	12121	2020	237
1	12132	2020	237
1	12151	2025	238
1	12172	2025	238
1	12182	2030	239
1	12203	2030	239
1	12215	2035	240
1	12238	2035	240
1	12246	2040	241
1	12265	2040	241
1	12273	2045	242
1	12290	2045	242
1	12301	2050	243
1	12318	2050	242
1	12332	2055	243
1	12349	2055	242
1	12367	2060	243
1	12382	2060	242
1	12396	2065	243
1	12409	2065	242
1	12426	2070	243
1	12438	2070	243
1	12455	2075	244
1	12474	2075	244
1	12482	2080	245
1	12499	2080	245
1	12510	2085	246
1	12529	2085	246
1	12541	2090	247
1	12564	2090	247
1	12574	2095	248
1	12593	2095	248
1	12601	2100	249
1	12616	2100	248
1	12631	2105	249
1	12645	2105	248
1	12659	2110	249
1	12672	2110	248
1	12689	2115	249
1	12702	2115	249
1	12717	2120	250
1	12736	2120	250
1	12747	2125	251
1	12768	2125	251
1	12780	2130	252
1	12803	2130	252
1	12811	2135	253
1	12832	2135	253
1	12843	2140	254
1	12862	2140	253
1	12872	2145	254
1	12889	2145	253
1	12903	2150	254
1	12919	2150	253
1	12933	2155	254
1	12947	2155	253
1	12961	2160	254
1	12974	2160	253
1	12990	2165	254
1	13003	2165	253
1	13022	2170	254
1	13035	2170	253
1	13058	2175	254
1	13071	2175	253
1	13091	2180	254
1	13104	2180	253
1	13124	2185	254
1	13137	2185	253
1	13153	2190	254
1	13165	2190	253
1	13179	2195	254
1	13190	2195	253
1	13207	2200	254
1	13218	2200	253
1	13234	2205	254
1	13245	2205	253
1	13264	2210	254
1	13275	2210	253
1	13296	2215	254
1	13307	2215	253
1	13330	2220	254
1	13341	2220	254
1	13362	2225	255
1	13385	2225	255
1	13396	2230	256
1	13417	2230	256
1	13425	2235	257
1	13444	2235	257
1	13453	2240	258
1	13470	2240	257
1	13484	2245	258
1	13501	2245	257
1	13518	2250	258
1	13534	2250	257
1	13550	2255	258
1	13565	2255	257
1	13581	2260	258
1	13594	2260	257
1	13608	2265	258
1	13619	2265	257
1	13636	2270	258
1	13647	2270	257
1	13667	2275	258
1	13678	2275	257
1	13703	2280	258
1	13714	2280	257
1	13731	2285	258
1	13742	2285	257
1	13760	2290	258
1	13771	2290	257
1	13792	2295	258
1	13803	2295	257
1	13828	2300	258
1	13839	2300	258
1	13858	2305	259
1	13874	2305	259
1	13880	2310	260
1	13893	2310	260
1	13904	2315	261
1	13917	2315	260
1	13932	2320	261
1	13945	2320	260
1	13966	2325	261
1	13979	2325	260
1	13998	2330	261
1	14011	2330	260
1	14031	2335	261
1	14044	2335	260
1	14065	2340	261
1	14078	2340	260
1	14101	2345	261
1	14114	2345	260
1	14135	2350	261
1	14148	2350	260
1	14166	2355	261
1	14179	2355	261
1	14193	2360	262
1	14210	2360	262
1	14221	2365	263
1	14240	2365	263
1	14251	2370	264
1	14272	2370	264
1	14286	2375	265
1	14304	2375	264
1	14317	2380	265
1	14331	2380	264
1	14345	2385	265
1	14358	2385	264
1	14371	2390	265
1	14384	2390	264
1	14400	2395	265
1	14413	2395	264
1	14432	2400	265
1	14444	2400	265
1	14459	2405	266
1	14476	2405	266
1	14485	2410	267
1	14502	2410	267
1	14513	2415	268
1	14532	2415	268
1	14542	2420	269
1	14561	2420	269
1	14575	2425	270
1	14591	2425	269
1	14605	2430	270
1	14617	2430	269
1	14632	2435	270
1	14643	2435	269
1	14661	2440	270
1	14672	2440	269
1	14692	2445	270
1	14703	2445	269
1	14724	2450	270
1	14735	2450	270
1	14755	2455	271
1	14778	2455	271
1	14788	2460	272
1	14809	2460	272
1	14819	2465	273
1	14838	2465	272
1	14852	2470	273
1	14870	2470	272
1	14882	2475	273
1	14899	2475	272
1	14913	2480	273
1	14929	2480	273
1	14942	2485	274
1	14963	2485	274
1	14974	2490	275
1	14997	2490	275
1	15009	2495	276
1	15032	2495	275
1	15046	2500	276
1	15067	2500	275
1	15080	2505	276
1	15096	2505	275
1	15108	2510	276
1	15121	2510	275
1	15137	2515	276
1	15149	2515	275
1	15163	2520	276
1	15174	2520	276
1	15186	2525	277
1	15199	2525	277
1	15211	2530	278
1	15228	2530	278
1	15241	2535	279
1	15262	2535	279
1	15272	2540	280
1	15289	2540	280
1	15299	2545	281
1	15318	2545	281
1	15329	2550	282
1	15350	2550	282
1	15360	2555	283
1	15381	2555	283
1	15393	2560	284
1	15416	2560	284
1	15425	2565	285
1	15445	2565	285
1	15452	2570	286
1	15469	2570	286
1	15480	2575	287
1	15499	2575	287
1	15510	2580	288
1	15528	2580	288
1	15538	2585	289
1	15552	2585	288
1	15566	2590	289
1	15579	2590	288
1	15595	2595	289
1	15607	2595	289
1	15617	2600	290
1	15630	2600	290
1	15643	2605	291
1	15660	2605	291
1	15670	2610	292
1	15687	2610	292
1	15696	2615	293
1	15713	2615	293
1	15724	2620	294
1	15743	2620	294
1	15755	2625	295
1	15774	2625	294
1	15788	2630	295
1	15807	2630	294
1	15821	2635	295
1	15840	2635	294
1	15854	2640	295
1	15873	2640	294
1	15888	2645	295
1	15906	2645	294
1	15920	2650	295
1	15937	2650	294
1	15950	2655	295
1	15967	2655	294
1	15981	2660	295
1	15997	2660	294
1	16008	2665	295
1	16023	2665	294
1	16035	2670	295
1	16050	2670	294
1	16065	2675	295
1	16080	2675	294
1	16099	2680	295
1	16113	2680	295
1	16131	2685	296
1	16150	2685	296
1	16156	2690	297
1	16171	2690	297
1	16183	2695	298
1	16198	2695	297
1	16212	2700	298
1	16226	2700	297
1	16238	2705	298
1	16251	2705	297
1	16268	2710	298
1	16281	2710	298
1	16299	2715	299
1	16320	2715	299
1	16329	2720	300
1	16348	2720	300
1	16357	2725	301
1	16374	2725	300
1	16387	2730	301
1	16402	2730	300
1	16415	2735	301
1	16428	2735	300
1	16445	2740	301
1	16458	2740	300
1	16477	2745	301
1	16489	2745	301
1	16503	2750	302
1	16520	2750	302
1	16530	2755	303
1	16547	2755	303
1	16558	2760	304
1	16577	2760	304
1	16591	2765	305
1	16610	2765	304
1	16628	2770	305
1	16647	2770	304
1	16665	2775	305
1	16682	2775	305
1	16696	2780	306
1	16717	2780	306
1	16727	2785	307
1	16748	2785	307
1	16759	2790	308
1	16777	2790	307
1	16787	2795	308
1	16802	2795	307
1	16818	2800	308
1	16833	2800	308
1	16848	2805	309
1	16867	2805	309
1	16877	2810	310
1	16898	2810	310
1	16909	2815	311
1	16930	2815	311
1	16938	2820	312
1	16957	2820	312
1	16970	2825	313
1	16993	2825	313
1	17003	2830	314
1	17024	2830	313
1	17038	2835	314
1	17058	2835	314
1	17071	2840	315
1	17094	2840	315
1	17102	2845	316
1	17123	2845	316
1	17134	2850	317
1	17155	2850	316
1	17167	2855	317
1	17188	2855	316
1	17201	2860	317
1	17221	2860	316
1	17234	2865	317
1	17253	2865	316
1	17269	2870	317
1	17288	2870	317
1	17301	2875	318
1	17324	2875	318
1	17335	2880	319
1	17358	2880	319
1	17367	2885	320
1	17383	2885	320
1	17388	2890	321
1	17399	2890	321
1	17411	2895	322
1	17426	2895	322
1	17438	2900	323
1	17457	2900	323
1	17468	2905	324
1	17489	2905	324
1	17502	2910	325
1	17526	2910	325
1	17534	2915	326
1	17557	2915	326
1	17568	2920	327
1	17590	2920	327
1	17601	2925	328
1	17624	2925	328
1	17632	2930	329
1	17653	2930	329
1	17663	2935	330
1	17684	2935	330
1	17694	2940	331
1	17715	2940	331
1	17725	2945	332
1	17746	2945	332
1	17760	2950	333
1	17787	2950	333
1	17796	2955	334
1	17819	2955	333
1	17829	2960	334
1	17848	2960	333
1	17859	2965	334
1	17875	2965	334
1	17884	2970	335
1	17899	2970	335
1	17911	2975	336
1	17930	2975	336
1	17943	2980	337
1	17962	2980	336
1	17979	2985	337
1	17998	2985	336
1	18016	2990	337
1	18034	2990	337
1	18050	2995	338
1	18071	2995	338
1	18078	3000	339
1	18097	3000	339
1	18108	3005	340
1	18125	3005	340
1	18133	3010	341
1	18148	3010	341
1	18158	3015	342
1	18173	3015	342
1	18185	3020	343
1	18204	3020	343
1	18217	3025	344
1	18238	3025	344
1	18246	3030	345
1	18267	3030	345
1	18277	3035	346
1	18298	3035	346
1	18308	3040	347
1	18327	3040	347
1	18337	3045	348
1	18356	3045	348
1	18364	3050	349
1	18381	3050	349
1	18394	3055	350
1	18410	3055	349
1	18424	3060	350
1	18439	3060	349
1	18456	3065	350
1	18471	3065	349
1	18490	3070	350
1	18505	3070	349
1	18526	3075	350
1	18541	3075	349
1	18561	3080	350
1	18574	3080	350
1	18586	3085	351
1	18601	3085	351
1	18611	3090	352
1	18626	3090	352
1	18637	3095	353
1	18654	3095	353
1	18666	3100	354
1	18685	3100	354
1	18697	3105	355
1	18714	3105	354
1	18732	3110	355
1	18749	3110	354
1	18767	3115	355
1	18783	3115	354
1	18799	3120	355
1	18813	3120	355
1	18829	3125	356
1	18850	3125	356
1	18860	3130	357
1	18879	3130	357
1	18888	3135	358
1	18907	3135	358
1	18918	3140	359
1	18939	3140	359
1	18951	3145	360
1	18974	3145	360
1	18984	3150	361
1	19003	3150	360
1	19015	3155	361
1	19032	3155	360
1	19047	3160	361
1	19064	3160	360
1	19080	3165	361
1	19097	3165	360
1	19114	3170	361
1	19131	3170	360
1	19149	3175	361
1	19166	3175	360
1	19185	3180	361
1	19201	3180	361
1	19217	3185	362
1	19240	3185	362
1	19250	3190	363
1	19271	3190	363
1	19279	3195	364
1	19296	3195	364
1	19306	3200	365
1	19321	3200	364
1	19336	3205	365
1	19350	3205	364
1	19364	3210	365
1	19377	3210	364
1	19394	3215	365
1	19407	3215	364
1	19425	3220	365
1	19438	3220	364
1	19460	3225	365
1	19472	3225	364
1	19487	3230	365
1	19498	3230	364
1	19514	3235	365
1	19525	3235	364
1	19541	3240	365
1	19552	3240	364
1	19569	3245	365
1	19580	3245	364
1	19600	3250	365
1	19611	3250	364
1	19637	3255	365
1	19648	3255	364
1	19670	3260	365
1	19681	3260	364
1	19699	3265	365
1	19710	3265	364
1	19728	3270	365
1	19739	3270	364
1	19756	3275	365
1	19767	3275	364
1	19788	3280	365
1	19799	3280	364
1	19822	3285	365
1	19833	3285	365
1	19852	3290	366
1	19871	3290	366
1	19879	3295	367
1	19896	3295	367
1	19906	3300	368
1	19921	3300	368
1	19932	3305	369
1	19945	3305	368
1	19962	3310	369
1	19975	3310	368
1	19995	3315	369
1	20007	3315	368
1	20027	3320	369
1	20038	3320	368
1	20057	3325	369
1	20068	3325	369
1	20085	3330	370
1	20104	3330	370
1	20115	3335	371
1	20136	3335	371
1	20147	3340	372
1	20168	3340	372
1	20177	3345	373
1	20198	3345	373
1	20208	3350	374
1	20227	3350	374
1	20237	3355	375
1	20254	3355	374
1	20269	3360	375
1	20286	3360	375
1	20300	3365	376
1	20321	3365	376
1	20330	3370	377
1	20348	3370	377
1	20356	3375	378
1	20371	3375	377
1	20384	3380	378
1	20398	3380	378
1	20409	3385	379
1	20424	3385	379
1	20436	3390	380
1	20453	3390	380
1	20461	3395	381
1	20476	3395	381
1	20487	3400	382
1	20502	3400	382
1	20512	3405	383
1	20529	3405	383
1	20541	3410	384
1	20557	3410	384
1	20570	3415	385
1	20591	3415	385
1	20603	3420	386
1	20628	3420	386
1	20638	3425	387
1	20661	3425	387
1	20669	3430	388
1	20690	3430	388
1	20700	3435	389
1	20721	3435	389
1	20734	3440	390
1	20754	3440	390
1	20765	3445	391
1	20784	3445	391
1	20792	3450	392
1	20807	3450	392
1	20816	3455	393
1	20831	3455	393
1	20843	3460	394
1	20860	3460	394
1	20868	3465	395
1	20883	3465	395
1	20895	3470	396
1	20914	3470	396
1	20927	3475	397
1	20950	3475	397
1	20958	3480	398
1	20979	3480	398
1	20989	3485	399
1	21010	3485	399
1	21021	3490	400
1	21042	3490	400
1	21051	3495	401
1	21070	3495	400
1	21084	3500	401
1	21103	3500	400
1	21119	3505	401
1	21137	3505	400
1	21151	3510	401
1	21167	3510	401
1	21180	3515	402
1	21197	3515	402
1	21206	3520	403
1	21223	3520	403
1	21235	3525	404
1	21252	3525	403
1	21267	3530	404
1	21284	3530	403
1	21303	3535	404
1	21320	3535	403
1	21342	3540	404
1	21356	3540	403
1	21369	3545	404
1	21380	3545	403
1	21396	3550	404
1	21407	3550	403
1	21423	3555	404
1	21434	3555	403
1	21452	3560	404
1	21463	3560	403
1	21487	3565	404
1	21498	3565	403
1	21522	3570	404
1	21533	3570	403
1	21553	3575	404
1	21564	3575	403
1	21581	3580	404
1	21592	3580	404
1	21606	3585	405
1	21621	3585	405
1	21633	3590	406
1	21652	3590	406
1	21662	3595	407
1	21681	3595	407
1	21694	3600	408
1	21713	3600	407
2	2	5	1
2	33	10	1
2	64	15	1
2	95	20	1
2	128	25	1
2	164	30	1
2	197	35	1
2	232	40	1
2	261	45	1
2	287	50	1
2	312	55	1
2	342	60	1
2	376	65	1
2	412	70	1
2	445	75	1
2	475	80	1
2	507	85	1
2	541	90	1
2	574	95	1
2	610	100	1
2	648	105	1
2	683	110	1
2	711	115	1
2	740	120	1
2	772	125	1
2	804	130	1
2	838	135	1
2	867	140	1
2	895	145	1
2	925	150	1
2	950	155	1
2	978	160	1
2	1006	165	1
2	1037	170	1
2	1072	175	1
2	1110	180	1
2	1141	185	1
2	1168	190	1
2	1195	195	1
2	1225	200	1
2	1256	205	1
2	1290	210	1
2	1326	215	1
2	1360	220	1
2	1392	225	1
2	1422	230	1
2	1455	235	1
2	1493	240	1
2	1524	245	1
2	1555	250	1
2	1586	255	1
2	1615	260	1
2	1647	265	1
2	1683	270	1
2	1714	275	1
2	1746	280	1
2	1775	285	1
2	1801	290	1
2	1829	295	1
2	1859	300	1
2	1884	305	1
2	1910	310	1
2	1941	315	1
2	1976	320	1
2	2008	325	1
2	2034	330	1
2	2062	335	1
2	2093	340	1
2	2123	345	1
2	2156	350	1
2	2193	355	1
2	2225	360	1
2	2254	365	1
2	2283	370	1
2	2312	375	1
2	2339	380	1
2	2372	385	1
2	2404	390	1
2	2437	395	1
2	2467	400	1
2	2495	405	1
2	2524	410	1
2	2551	415	1
2	2582	420	1
2	2616	425	1
2	2648	430	1
2	2682	435	1
2	2714	440	1
2	2748	445	1
2	2780	450	1
2	2814	455	1
2	2843	460	1
2	2874	465	1
2	2902	470	1
2	2931	475	1
2	2957	480	1
2	2987	485	1
2	3020	490	1
2	3050	495	1
2	3081	500	1
2	3112	505	1
2	3143	510	1
2	3171	515	1
2	3198	520	1
2	3225	525	1
2	3250	530	1
2	3277	535	1
2	3311	540	1
2	3346	545	1
2	3382	550	1
2	3415	555	1
2	3445	560	1
2	3477	565	1
2	3506	570	1
2	3537	575	1
2	3567	580	1
2	3598	585	1
2	3630	590	1
2	3660	595	1
2	3692	600	1
2	3722	605	1
2	3753	610	1
2	3784	615	1
2	3819	620	1
2	3850	625	1
2	3877	630	1
2	3901	635	1
2	3927	640	1
2	3950	645	1
2	3976	650	1
2	4006	655	1
2	4040	660	1
2	4073	665	1
2	4102	670	1
2	4129	675	1
2	4156	680	1
2	4186	685	1
2	4219	690	1
2	4254	695	1
2	4286	700	1
2	4319	705	1
2	4347	710	1
2	4377	715	1
2	4409	720	1
2	4444	725	1
2	4477	730	1
2	4508	735	1
2	4541	740	1
2	4572	745	1
2	4602	750	1
2	4634	755	1
2	4670	760	1
2	4701	765	1
2	4733	770	1
2	4767	775	1
2	4799	780	1
2	4833	785	1
2	4865	790	1
2	4891	795	1
2	4917	800	1
2	4942	805	1
2	4968	810	1
2	4998	815	1
2	5032	820	1
2	5060	825	1
2	5089	830	1
2	5118	835	1
2	5143	840	1
2	5171	845	1
2	5205	850	1
2	5238	855	1
2	5268	860	1
2	5299	865	1
2	5326	870	1
2	5354	875	1
2	5382	880	1
2	5409	885	1
2	5439	890	1
2	5464	895	1
2	5490	900	1
2	5513	905	1
2	5538	910	1
2	5568	915	1
2	5599	920	1
2	5629	925	1
2	5662	930	1
2	5693	935	1
2	5725	940	1
2	5758	945	1
2	5785	950	1
2	5814	955	1
2	5844	960	1
2	5876	965	1
2	5901	970	1
2	5929	975	1
2	5956	980	1
2	5985	985	1
2	6018	990	1
2	6049	995	1
2	6076	1000	1
2	6104	1005	1
2	6134	1010	1
2	6167	1015	1
2	6199	1020	1
2	6232	1025	1
2	6265	1030	1
2	6294	1035	1
2	6319	1040	1
2	6346	1045	1
2	6375	1050	1
2	6405	1055	1
2	6434	1060	1
2	6462	1065	1
2	6491	1070	1
2	6521	1075	1
2	6553	1080	1
2	6583	1085	1
2	6607	1090	1
2	6634	1095	1
2	6661	1100	1
2	6692	1105	1
2	6721	1110	1
2	6753	1115	1
2	6782	1120	1
2	6811	1125	1
2	6837	1130	1
2	6861	1135	1
2	6887	1140	1
2	6916	1145	1
2	6947	1150	1
2	6977	1155	1
2	7010	1160	1
2	7043	1165	1
2	7077	1170	1
2	7104	1175	1
2	7128	1180	1
2	7154	1185	1
2	7178	1190	1
2	7207	1195	1
2	7237	1200	1
2	7269	1205	1
2	7298	1210	1
2	7329	1215	1
2	7358	1220	1
2	7390	1225	1
2	7417	1230	1
2	7445	1235	1
2	7471	1240	1
2	7500	1245	1
2	7526	1250	1
2	7553	1255	1
2	7579	1260	1
2	7607	1265	1
2	7638	1270	1
2	7674	1275	1
2	7701	1280	1
2	7728	1285	1
2	7754	1290	1
2	7784	1295	1
2	7816	1300	1
2	7851	1305	1
2	7884	1310	1
2	7915	1315	1
2	7945	1320	1
2	7973	1325	1
2	8002	1330	1
2	8030	1335	1
2	8063	1340	1
2	8094	1345	1
2	8125	1350	1
2	8157	1355	1
2	8187	1360	1
2	8219	1365	1
2	8253	1370	1
2	8284	1375	1
2	8312	1380	1
2	8343	1385	1
2	8372	1390	1
2	8402	1395	1
2	8427	1400	1
2	8455	1405	1
2	8484	1410	1
2	8516	1415	1
2	8552	1420	1
2	8584	1425	1
2	8617	1430	1
2	8643	1435	1
2	8670	1440	1
2	8700	1445	1
2	8730	1450	1
2	8757	1455	1
2	8787	1460	1
2	8816	1465	1
2	8843	1470	1
2	8873	1475	1
2	8900	1480	1
2	8929	1485	1
2	8957	1490	1
2	8988	1495	1
2	9021	1500	1
2	9056	1505	1
2	9089	1510	1
2	9119	1515	1
2	9147	1520	1
2	9176	1525	1
2	9207	1530	1
2	9242	1535	1
2	9276	1540	1
2	9307	1545	1
2	9338	1550	1
2	9372	1555	1
2	9404	1560	1
2	9438	1565	1
2	9470	1570	1
2	9499	1575	1
2	9524	1580	1
2	9550	1585	1
2	9580	1590	1
2	9614	1595	1
2	9648	1600	1
2	9681	1605	1
2	9714	1610	1
2	9744	1615	1
2	9772	1620	1
2	9798	1625	1
2	9827	1630	1
2	9860	1635	1
2	9896	1640	1
2	9930	1645	1
2	9961	1650	1
2	9993	1655	1
2	10022	1660	1
2	10053	1665	1
2	10087	1670	1
2	10112	1675	1
2	10139	1680	1
2	10166	1685	1
2	10197	1690	1
2	10231	1695	1
2	10264	1700	1
2	10293	1705	1
2	10323	1710	1
2	10355	1715	1
2	10381	1720	1
2	10405	1725	1
2	10432	1730	1
2	10459	1735	1
2	10489	1740	1
2	10523	1745	1
2	10557	1750	1
2	10588	1755	1
2	10617	1760	1
2	10644	1765	1
2	10669	1770	1
2	10693	1775	1
2	10719	1780	1
2	10749	1785	1
2	10783	1790	1
2	10819	1795	1
2	10848	1800	1
2	10878	1805	1
2	10905	1810	1
2	10934	1815	1
2	10959	1820	1
2	10986	1825	1
2	11015	1830	1
2	11047	1835	1
2	11081	1840	1
2	11109	1845	1
2	11138	1850	1
2	11165	1855	1
2	11191	1860	1
2	11215	1865	1
2	11241	1870	1
2	11269	1875	1
2	11299	1880	1
2	11331	1885	1
2	11357	1890	1
2	11384	1895	1
2	11412	1900	1
2	11443	1905	1
2	11477	1910	1
2	11513	1915	1
2	11542	1920	1
2	11571	1925	1
2	11597	1930	1
2	11625	1935	1
2	11651	1940	1
2	11680	1945	1
2	11706	1950	1
2	11734	1955	1
2	11760	1960	1
2	11788	1965	1
2	11818	1970	1
2	11847	1975	1
2	11878	1980	1
2	11910	1985	1
2	11938	1990	1
2	11969	1995	1
2	11997	2000	1
2	12027	2005	1
2	12060	2010	1
2	12090	2015	1
2	12122	2020	1
2	12152	2025	1
2	12183	2030	1
2	12216	2035	1
2	12247	2040	1
2	12274	2045	1
2	12302	2050	1
2	12333	2055	1
2	12368	2060	1
2	12397	2065	1
2	12427	2070	1
2	12456	2075	1
2	12483	2080	1
2	12511	2085	1
2	12542	2090	1
2	12575	2095	1
2	12602	2100	1
2	12632	2105	1
2	12660	2110	1
2	12690	2115	1
2	12718	2120	1
2	12748	2125	1
2	12781	2130	1
2	12812	2135	1
2	12844	2140	1
2	12873	2145	1
2	12904	2150	1
2	12934	2155	1
2	12962	2160	1
2	12991	2165	1
2	13023	2170	1
2	13059	2175	1
2	13092	2180	1
2	13125	2185	1
2	13154	2190	1
2	13180	2195	1
2	13208	2200	1
2	13235	2205	1
2	13265	2210	1
2	13297	2215	1
2	13331	2220	1
2	13363	2225	1
2	13397	2230	1
2	13426	2235	1
2	13454	2240	1
2	13485	2245	1
2	13519	2250	1
2	13551	2255	1
2	13582	2260	1
2	13609	2265	1
2	13637	2270	1
2	13668	2275	1
2	13704	2280	1
2	13732	2285	1
2	13761	2290	1
2	13793	2295	1
2	13829	2300	1
2	13859	2305	1
2	13881	2310	1
2	13905	2315	1
2	13933	2320	1
2	13967	2325	1
2	13999	2330	1
2	14032	2335	1
2	14066	2340	1
2	14102	2345	1
2	14136	2350	1
2	14167	2355	1
2	14194	2360	1
2	14222	2365	1
2	14252	2370	1
2	14287	2375	1
2	14318	2380	1
2	14346	2385	1
2	14372	2390	1
2	14401	2395	1
2	14433	2400	1
2	14460	2405	1
2	14486	2410	1
2	14514	2415	1
2	14543	2420	1
2	14576	2425	1
2	14606	2430	1
2	14633	2435	1
2	14662	2440	1
2	14693	2445	1
2	14725	2450	1
2	14756	2455	1
2	14789	2460	1
2	14820	2465	1
2	14853	2470	1
2	14883	2475	1
2	14914	2480	1
2	14943	2485	1
2	14975	2490	1
2	15010	2495	1
2	15047	2500	1
2	15081	2505	1
2	15109	2510	1
2	15138	2515	1
2	15164	2520	1
2	15187	2525	1
2	15212	2530	1
2	15242	2535	1
2	15273	2540	1
2	15300	2545	1
2	15330	2550	1
2	15361	2555	1
2	15394	2560	1
2	15426	2565	1
2	15453	2570	1
2	15481	2575	1
2	15511	2580	1
2	15539	2585	1
2	15567	2590	1
2	15596	2595	1
2	15618	2600	1
2	15644	2605	1
2	15671	2610	1
2	15697	2615	1
2	15725	2620	1
2	15756	2625	1
2	15789	2630	1
2	15822	2635	1
2	15855	2640	1
2	15889	2645	1
2	15921	2650	1
2	15951	2655	1
2	15982	2660	1
2	16009	2665	1
2	16036	2670	1
2	16066	2675	1
2	16100	2680	1
2	16132	2685	1
2	16157	2690	1
2	16184	2695	1
2	16213	2700	1
2	16239	2705	1
2	16269	2710	1
2	16300	2715	1
2	16330	2720	1
2	16358	2725	1
2	16388	2730	1
2	16416	2735	1
2	16446	2740	1
2	16478	2745	1
2	16504	2750	1
2	16531	2755	1
2	16559	2760	1
2	16592	2765	1
2	16629	2770	1
2	16666	2775	1
2	16697	2780	1
2	16728	2785	1
2	16760	2790	1
2	16788	2795	1
2	16819	2800	1
2	16849	2805	1
2	16878	2810	1
2	16910	2815	1
2	16939	2820	1
2	16971	2825	1
2	17004	2830	1
2	17039	2835	1
2	17072	2840	1
2	17103	2845	1
2	17135	2850	1
2	17168	2855	1
2	17202	2860	1
2	17235	2865	1
2	17270	2870	1
2	17302	2875	1
2	17336	2880	1
2	17368	2885	1
2	17389	2890	1
2	17412	2895	1
2	17439	2900	1
2	17469	2905	1
2	17503	2910	1
2	17535	2915	1
2	17569	2920	1
2	17602	2925	1
2	17633	2930	1
2	17664	2935	1
2	17695	2940	1
2	17726	2945	1
2	17761	2950	1
2	17797	2955	1
2	17830	2960	1
2	17860	2965	1
2	17885	2970	1
2	17912	2975	1
2	17944	2980	1
2	17980	2985	1
2	18017	2990	1
2	18051	2995	1
2	18079	3000	1
2	18109	3005	1
2	18134	3010	1
2	18159	3015	1
2	18186	3020	1
2	18218	3025	1
2	18247	3030	1
2	18278	3035	1
2	18309	3040	1
2	18338	3045	1
2	18365	3050	1
2	18395	3055	1
2	18425	3060	1
2	18457	3065	1
2	18491	3070	1
2	18527	3075	1
2	18562	3080	1
2	18587	3085	1
2	18612	3090	1
2	18638	3095	1
2	18667	3100	1
2	18698	3105	1
2	18733	3110	1
2	18768	3115	1
2	18800	3120	1
2	18830	3125	1
2	18861	3130	1
2	18889	3135	1
2	18919	3140	1
2	18952	3145	1
2	18985	3150	1
2	19016	3155	1
2	19048	3160	1
2	19081	3165	1
2	19115	3170	1
2	19150	3175	1
2	19186	3180	1
2	19218	3185	1
2	19251	3190	1
2	19280	3195	1
2	19307	3200	1
2	19337	3205	1
2	19365	3210	1
2	19395	3215	1
2	19426	3220	1
2	19461	3225	1
2	19488	3230	1
2	19515	3235	1
2	19542	3240	1
2	19570	3245	1
2	19601	3250	1
2	19638	3255	1
2	19671	3260	1
2	19700	3265	1
2	19729	3270	1
2	19757	3275	1
2	19789	3280	1
2	19823	3285	1
2	19853	3290	1
2	19880	3295	1
2	19907	3300	1
2	19933	3305	1
2	19963	3310	1
2	19996	3315	1
2	20028	3320	1
2	20058	3325	1
2	20086	3330	1
2	20116	3335	1
2	20148	3340	1
2	20178	3345	1
2	20209	3350	1
2	20238	3355	1
2	20270	3360	1
2	20301	3365	1
2	20331	3370	1
2	20357	3375	1
2	20385	3380	1
2	20410	3385	1
2	20437	3390	1
2	20462	3395	1
2	20488	3400	1
2	20513	3405	1
2	20542	3410	1
2	20571	3415	1
2	20604	3420	1
2	20639	3425	1
2	20670	3430	1
2	20701	3435	1
2	20735	3440	1
2	20766	3445	1
2	20793	3450	1
2	20817	3455	1
2	20844	3460	1
2	20869	3465	1
2	20896	3470	1
2	20928	3475	1
2	20959	3480	1
2	20990	3485	1
2	21022	3490	1
2	21052	3495	1
2	21085	3500	1
2	21120	3505	1
2	21152	3510	1
2	21181	3515	1
2	21207	3520	1
2	21236	3525	1
2	21268	3530	1
2	21304	3535	1
2	21343	3540	1
2	21370	3545	1
2	21397	3550	1
2	21424	3555	1
2	21453	3560	1
2	21488	3565	1
2	21523	3570	1
2	21554	3575	1
2	21582	3580	1
2	21607	3585	1
2	21634	3590	1
2	21663	3595	1
2	21695	3600	1
3	2	5	1
3	13	5	1
3	33	10	2
3	44	10	1
3	64	15	2
3	74	15	1
3	95	20	2
3	105	20	1
3	128	25	2
3	138	25	1
3	164	30	2
3	174	30	1
3	197	35	2
3	207	35	1
3	232	40	2
3	242	40	2
3	261	45	3
3	278	45	3
3	287	50	4
3	302	50	4
3	312	55	5
3	328	55	5
3	342	60	6
3	358	60	5
3	376	65	6
3	392	65	5
3	412	70	6
3	427	70	5
3	445	75	6
3	459	75	6
3	475	80	7
3	496	80	7
3	507	85	8
3	529	85	8
3	541	90	9
3	563	90	9
3	574	95	10
3	594	95	9
3	610	100	10
3	630	100	9
3	648	105	10
3	666	105	9
3	683	110	10
3	698	110	10
3	711	115	11
3	730	115	11
3	740	120	12
3	759	120	12
3	772	125	13
3	794	125	13
3	804	130	14
3	826	130	14
3	838	135	15
3	858	135	15
3	867	140	16
3	882	140	15
3	895	145	16
3	909	145	15
3	925	150	16
3	937	150	15
3	950	155	16
3	960	155	15
3	978	160	16
3	988	160	15
3	1006	165	16
3	1016	165	15
3	1037	170	16
3	1047	170	15
3	1072	175	16
3	1082	175	15
3	1110	180	16
3	1120	180	16
3	1141	185	17
3	1160	185	17
3	1168	190	18
3	1185	190	18
3	1195	195	19
3	1212	195	19
3	1225	200	20
3	1240	200	19
3	1256	205	20
3	1270	205	19
3	1290	210	20
3	1304	210	19
3	1326	215	20
3	1340	215	19
3	1360	220	20
3	1373	220	19
3	1392	225	20
3	1404	225	20
3	1422	230	21
3	1443	230	21
3	1455	235	22
3	1480	235	22
3	1493	240	23
3	1516	240	23
3	1524	245	24
3	1544	245	24
3	1555	250	25
3	1575	250	25
3	1586	255	26
3	1604	255	26
3	1615	260	27
3	1635	260	27
3	1647	265	28
3	1667	265	27
3	1683	270	28
3	1700	270	28
3	1714	275	29
3	1735	275	29
3	1746	280	30
3	1767	280	30
3	1775	285	31
3	1792	285	31
3	1801	290	32
3	1815	290	31
3	1829	295	32
3	1842	295	32
3	1859	300	33
3	1878	300	33
3	1884	305	34
3	1899	305	34
3	1910	310	35
3	1927	310	35
3	1941	315	36
3	1957	315	35
3	1976	320	36
3	1991	320	35
3	2008	325	36
3	2020	325	35
3	2034	330	36
3	2044	330	35
3	2062	335	36
3	2072	335	35
3	2093	340	36
3	2103	340	35
3	2123	345	36
3	2133	345	35
3	2156	350	36
3	2166	350	35
3	2193	355	36
3	2203	355	35
3	2225	360	36
3	2235	360	36
3	2254	365	37
3	2273	365	37
3	2283	370	38
3	2302	370	38
3	2312	375	39
3	2329	375	39
3	2339	380	40
3	2357	380	40
3	2372	385	41
3	2389	385	41
3	2404	390	42
3	2426	390	42
3	2437	395	43
3	2457	395	43
3	2467	400	44
3	2485	400	44
3	2495	405	45
3	2514	405	45
3	2524	410	46
3	2541	410	46
3	2551	415	47
3	2565	415	46
3	2582	420	47
3	2596	420	46
3	2616	425	47
3	2629	425	46
3	2648	430	47
3	2660	430	46
3	2682	435	47
3	2694	435	47
3	2714	440	48
3	2736	440	48
3	2748	445	49
3	2770	445	49
3	2780	450	50
3	2802	450	50
3	2814	455	51
3	2834	455	51
3	2843	460	52
3	2859	460	51
3	2874	465	52
3	2889	465	51
3	2902	470	52
3	2916	470	51
3	2931	475	52
3	2944	475	51
3	2957	480	52
3	2969	480	51
3	2987	485	52
3	2999	485	51
3	3020	490	52
3	3032	490	51
3	3050	495	52
3	3062	495	51
3	3081	500	52
3	3093	500	51
3	3112	505	52
3	3124	505	51
3	3143	510	52
3	3155	510	52
3	3171	515	53
3	3187	515	53
3	3198	520	54
3	3214	520	54
3	3225	525	55
3	3242	525	55
3	3250	530	56
3	3265	530	56
3	3277	535	57
3	3296	535	57
3	3311	540	58
3	3330	540	57
3	3346	545	58
3	3364	545	57
3	3382	550	58
3	3399	550	57
3	3415	555	58
3	3430	555	58
3	3445	560	59
3	3465	560	59
3	3477	565	60
3	3497	565	60
3	3506	570	61
3	3524	570	61
3	3537	575	62
3	3557	575	62
3	3567	580	63
3	3585	580	62
3	3598	585	63
3	3616	585	62
3	3630	590	63
3	3647	590	63
3	3660	595	64
3	3680	595	64
3	3692	600	65
3	3712	600	65
3	3722	605	66
3	3742	605	66
3	3753	610	67
3	3773	610	67
3	3784	615	68
3	3804	615	68
3	3819	620	69
3	3837	620	68
3	3850	625	69
3	3865	625	69
3	3877	630	70
3	3891	630	70
3	3901	635	71
3	3916	635	71
3	3927	640	72
3	3940	640	72
3	3950	645	73
3	3963	645	73
3	3976	650	74
3	3995	650	74
3	4006	655	75
3	4027	655	75
3	4040	660	76
3	4064	660	76
3	4073	665	77
3	4093	665	77
3	4102	670	78
3	4118	670	78
3	4129	675	79
3	4142	675	78
3	4156	680	79
3	4168	680	78
3	4186	685	79
3	4198	685	78
3	4219	690	79
3	4231	690	78
3	4254	695	79
3	4266	695	79
3	4286	700	80
3	4308	700	80
3	4319	705	81
3	4338	705	81
3	4347	710	82
3	4363	710	81
3	4377	715	82
3	4393	715	81
3	4409	720	82
3	4425	720	81
3	4444	725	82
3	4460	725	82
3	4477	730	83
3	4498	730	83
3	4508	735	84
3	4530	735	84
3	4541	740	85
3	4561	740	85
3	4572	745	86
3	4592	745	86
3	4602	750	87
3	4620	750	86
3	4634	755	87
3	4652	755	86
3	4670	760	87
3	4686	760	87
3	4701	765	88
3	4721	765	88
3	4733	770	89
3	4755	770	89
3	4767	775	90
3	4789	775	90
3	4799	780	91
3	4821	780	91
3	4833	785	92
3	4853	785	91
3	4865	790	92
3	4881	790	92
3	4891	795	93
3	4906	795	93
3	4917	800	94
3	4934	800	94
3	4942	805	95
3	4957	805	95
3	4968	810	96
3	4985	810	96
3	4998	815	97
3	5016	815	96
3	5032	820	97
3	5047	820	96
3	5060	825	97
3	5072	825	96
3	5089	830	97
3	5101	830	96
3	5118	835	97
3	5129	835	96
3	5143	840	97
3	5153	840	96
3	5171	845	97
3	5181	845	96
3	5205	850	97
3	5215	850	96
3	5238	855	97
3	5248	855	97
3	5268	860	98
3	5289	860	98
3	5299	865	99
3	5318	865	99
3	5326	870	100
3	5343	870	100
3	5354	875	101
3	5368	875	100
3	5382	880	101
3	5394	880	100
3	5409	885	101
3	5421	885	100
3	5439	890	101
3	5451	890	100
3	5464	895	101
3	5476	895	100
3	5490	900	101
3	5501	900	101
3	5513	905	102
3	5526	905	102
3	5538	910	103
3	5555	910	103
3	5568	915	104
3	5588	915	104
3	5599	920	105
3	5619	920	105
3	5629	925	106
3	5647	925	105
3	5662	930	106
3	5678	930	105
3	5693	935	106
3	5707	935	105
3	5725	940	106
3	5739	940	105
3	5758	945	106
3	5770	945	105
3	5785	950	106
3	5795	950	105
3	5814	955	106
3	5824	955	105
3	5844	960	106
3	5854	960	105
3	5876	965	106
3	5886	965	105
3	5901	970	106
3	5911	970	105
3	5929	975	106
3	5939	975	105
3	5956	980	106
3	5966	980	105
3	5985	985	106
3	5995	985	105
3	6018	990	106
3	6028	990	106
3	6049	995	107
3	6067	995	107
3	6076	1000	108
3	6093	1000	108
3	6104	1005	109
3	6123	1005	109
3	6134	1010	110
3	6155	1010	110
3	6167	1015	111
3	6189	1015	111
3	6199	1020	112
3	6219	1020	111
3	6232	1025	112
3	6252	1025	111
3	6265	1030	112
3	6283	1030	111
3	6294	1035	112
3	6309	1035	112
3	6319	1040	113
3	6333	1040	113
3	6346	1045	114
3	6364	1045	114
3	6375	1050	115
3	6393	1050	115
3	6405	1055	116
3	6423	1055	116
3	6434	1060	117
3	6449	1060	117
3	6462	1065	118
3	6481	1065	118
3	6491	1070	119
3	6510	1070	119
3	6521	1075	120
3	6542	1075	120
3	6553	1080	121
3	6574	1080	121
3	6583	1085	122
3	6599	1085	122
3	6607	1090	123
3	6622	1090	123
3	6634	1095	124
3	6646	1095	123
3	6661	1100	124
3	6671	1100	123
3	6692	1105	124
3	6702	1105	123
3	6721	1110	124
3	6731	1110	123
3	6753	1115	124
3	6763	1115	123
3	6782	1120	124
3	6792	1120	123
3	6811	1125	124
3	6821	1125	124
3	6837	1130	125
3	6852	1130	125
3	6861	1135	126
3	6876	1135	126
3	6887	1140	127
3	6904	1140	127
3	6916	1145	128
3	6937	1145	128
3	6947	1150	129
3	6966	1150	129
3	6977	1155	130
3	6993	1155	129
3	7010	1160	130
3	7026	1160	129
3	7043	1165	130
3	7059	1165	129
3	7077	1170	130
3	7090	1170	129
3	7104	1175	130
3	7114	1175	130
3	7128	1180	131
3	7143	1180	131
3	7154	1185	132
3	7169	1185	132
3	7178	1190	133
3	7190	1190	132
3	7207	1195	133
3	7219	1195	132
3	7237	1200	133
3	7249	1200	132
3	7269	1205	133
3	7280	1205	133
3	7298	1210	134
3	7316	1210	134
3	7329	1215	135
3	7349	1215	135
3	7358	1220	136
3	7377	1220	136
3	7390	1225	137
3	7405	1225	136
3	7417	1230	137
3	7429	1230	136
3	7445	1235	137
3	7456	1235	137
3	7471	1240	138
3	7489	1240	138
3	7500	1245	139
3	7515	1245	139
3	7526	1250	140
3	7537	1250	140
3	7553	1255	141
3	7570	1255	141
3	7579	1260	142
3	7596	1260	142
3	7607	1265	143
3	7626	1265	143
3	7638	1270	144
3	7661	1270	144
3	7674	1275	145
3	7693	1275	144
3	7701	1280	145
3	7715	1280	144
3	7728	1285	145
3	7741	1285	145
3	7754	1290	146
3	7773	1290	146
3	7784	1295	147
3	7805	1295	147
3	7816	1300	148
3	7839	1300	148
3	7851	1305	149
3	7872	1305	149
3	7884	1310	150
3	7905	1310	150
3	7915	1315	151
3	7935	1315	151
3	7945	1320	152
3	7964	1320	152
3	7973	1325	153
3	7992	1325	153
3	8002	1330	154
3	8019	1330	154
3	8030	1335	155
3	8051	1335	155
3	8063	1340	156
3	8081	1340	155
3	8094	1345	156
3	8110	1345	155
3	8125	1350	156
3	8141	1350	155
3	8157	1355	156
3	8173	1355	155
3	8187	1360	156
3	8203	1360	155
3	8219	1365	156
3	8235	1365	155
3	8253	1370	156
3	8268	1370	155
3	8284	1375	156
3	8297	1375	155
3	8312	1380	156
3	8324	1380	155
3	8343	1385	156
3	8355	1385	155
3	8372	1390	156
3	8384	1390	155
3	8402	1395	156
3	8413	1395	156
3	8427	1400	157
3	8444	1400	157
3	8455	1405	158
3	8474	1405	158
3	8484	1410	159
3	8503	1410	159
3	8516	1415	160
3	8541	1415	160
3	8552	1420	161
3	8575	1420	161
3	8584	1425	162
3	8604	1425	161
3	8617	1430	162
3	8634	1430	162
3	8643	1435	163
3	8660	1435	163
3	8670	1440	164
3	8687	1440	164
3	8700	1445	165
3	8721	1445	165
3	8730	1450	166
3	8749	1450	166
3	8757	1455	167
3	8774	1455	167
3	8787	1460	168
3	8803	1460	167
3	8816	1465	168
3	8828	1465	167
3	8843	1470	168
3	8853	1470	167
3	8873	1475	168
3	8883	1475	167
3	8900	1480	168
3	8910	1480	167
3	8929	1485	168
3	8939	1485	167
3	8957	1490	168
3	8967	1490	167
3	8988	1495	168
3	8998	1495	167
3	9021	1500	168
3	9031	1500	167
3	9056	1505	168
3	9066	1505	167
3	9089	1510	168
3	9099	1510	167
3	9119	1515	168
3	9129	1515	168
3	9147	1520	169
3	9165	1520	169
3	9176	1525	170
3	9194	1525	170
3	9207	1530	171
3	9225	1530	170
3	9242	1535	171
3	9259	1535	170
3	9276	1540	171
3	9291	1540	170
3	9307	1545	171
3	9321	1545	170
3	9338	1550	171
3	9352	1550	170
3	9372	1555	171
3	9386	1555	171
3	9404	1560	172
3	9426	1560	172
3	9438	1565	173
3	9460	1565	173
3	9470	1570	174
3	9488	1570	173
3	9499	1575	174
3	9514	1575	174
3	9524	1580	175
3	9539	1580	175
3	9550	1585	176
3	9567	1585	176
3	9580	1590	177
3	9602	1590	177
3	9614	1595	178
3	9636	1595	178
3	9648	1600	179
3	9667	1600	178
3	9681	1605	179
3	9699	1605	178
3	9714	1610	179
3	9731	1610	179
3	9744	1615	180
3	9763	1615	180
3	9772	1620	181
3	9789	1620	181
3	9798	1625	182
3	9815	1625	182
3	9827	1630	183
3	9843	1630	182
3	9860	1635	183
3	9876	1635	182
3	9896	1640	183
3	9911	1640	182
3	9930	1645	183
3	9943	1645	182
3	9961	1650	183
3	9973	1650	182
3	9993	1655	183
3	10005	1655	182
3	10022	1660	183
3	10034	1660	182
3	10053	1665	183
3	10065	1665	182
3	10087	1670	183
3	10098	1670	182
3	10112	1675	183
3	10122	1675	182
3	10139	1680	183
3	10149	1680	183
3	10166	1685	184
3	10184	1685	184
3	10197	1690	185
3	10219	1690	185
3	10231	1695	186
3	10252	1695	186
3	10264	1700	187
3	10285	1700	187
3	10293	1705	188
3	10312	1705	188
3	10323	1710	189
3	10344	1710	189
3	10355	1715	190
3	10374	1715	190
3	10381	1720	191
3	10394	1720	191
3	10405	1725	192
3	10420	1725	192
3	10432	1730	193
3	10448	1730	193
3	10459	1735	194
3	10478	1735	194
3	10489	1740	195
3	10510	1740	195
3	10523	1745	196
3	10547	1745	196
3	10557	1750	197
3	10577	1750	196
3	10588	1755	197
3	10604	1755	196
3	10617	1760	197
3	10630	1760	196
3	10644	1765	197
3	10655	1765	197
3	10669	1770	198
3	10684	1770	198
3	10693	1775	199
3	10708	1775	199
3	10719	1780	200
3	10736	1780	200
3	10749	1785	201
3	10767	1785	200
3	10783	1790	201
3	10801	1790	200
3	10819	1795	201
3	10835	1795	201
3	10848	1800	202
3	10866	1800	202
3	10878	1805	203
3	10896	1805	203
3	10905	1810	204
3	10921	1810	204
3	10934	1815	205
3	10948	1815	205
3	10959	1820	206
3	10976	1820	206
3	10986	1825	207
3	11003	1825	207
3	11015	1830	208
3	11035	1830	208
3	11047	1835	209
3	11069	1835	209
3	11081	1840	210
3	11101	1840	210
3	11109	1845	211
3	11128	1845	211
3	11138	1850	212
3	11155	1850	212
3	11165	1855	213
3	11181	1855	213
3	11191	1860	214
3	11204	1860	214
3	11215	1865	215
3	11230	1865	215
3	11241	1870	216
3	11258	1870	216
3	11269	1875	217
3	11288	1875	217
3	11299	1880	218
3	11320	1880	218
3	11331	1885	219
3	11350	1885	219
3	11357	1890	220
3	11374	1890	220
3	11384	1895	221
3	11401	1895	221
3	11412	1900	222
3	11431	1900	222
3	11443	1905	223
3	11465	1905	223
3	11477	1910	224
3	11499	1910	223
3	11513	1915	224
3	11532	1915	224
3	11542	1920	225
3	11560	1920	225
3	11571	1925	226
3	11587	1925	226
3	11597	1930	227
3	11613	1930	227
3	11625	1935	228
3	11639	1935	227
3	11651	1940	228
3	11663	1940	227
3	11680	1945	228
3	11692	1945	228
3	11706	1950	229
3	11722	1950	229
3	11734	1955	230
3	11750	1955	230
3	11760	1960	231
3	11776	1960	231
3	11788	1965	232
3	11806	1965	232
3	11818	1970	233
3	11834	1970	232
3	11847	1975	233
3	11861	1975	232
3	11878	1980	233
3	11892	1980	232
3	11910	1985	233
3	11924	1985	233
3	11938	1990	234
3	11958	1990	234
3	11969	1995	235
3	11987	1995	235
3	11997	2000	236
3	12015	2000	236
3	12027	2005	237
3	12047	2005	237
3	12060	2010	238
3	12081	2010	238
3	12090	2015	239
3	12108	2015	238
3	12122	2020	239
3	12138	2020	238
3	12152	2025	239
3	12166	2025	238
3	12183	2030	239
3	12197	2030	238
3	12216	2035	239
3	12228	2035	238
3	12247	2040	239
3	12257	2040	239
3	12274	2045	240
3	12291	2045	240
3	12302	2050	241
3	12320	2050	241
3	12333	2055	242
3	12351	2055	241
3	12368	2060	242
3	12384	2060	241
3	12397	2065	242
3	12411	2065	241
3	12427	2070	242
3	12439	2070	241
3	12456	2075	242
3	12466	2075	241
3	12483	2080	242
3	12493	2080	241
3	12511	2085	242
3	12521	2085	241
3	12542	2090	242
3	12552	2090	241
3	12575	2095	242
3	12585	2095	241
3	12602	2100	242
3	12612	2100	241
3	12632	2105	242
3	12642	2105	241
3	12660	2110	242
3	12670	2110	241
3	12690	2115	242
3	12700	2115	241
3	12718	2120	242
3	12728	2120	241
3	12748	2125	242
3	12758	2125	241
3	12781	2130	242
3	12791	2130	241
3	12812	2135	242
3	12822	2135	241
3	12844	2140	242
3	12854	2140	241
3	12873	2145	242
3	12883	2145	241
3	12904	2150	242
3	12914	2150	241
3	12934	2155	242
3	12944	2155	242
3	12962	2160	243
3	12980	2160	243
3	12991	2165	244
3	13009	2165	244
3	13023	2170	245
3	13047	2170	245
3	13059	2175	246
3	13082	2175	246
3	13092	2180	247
3	13114	2180	247
3	13125	2185	248
3	13145	2185	248
3	13154	2190	249
3	13170	2190	249
3	13180	2195	250
3	13196	2195	250
3	13208	2200	251
3	13224	2200	251
3	13235	2205	252
3	13253	2205	252
3	13265	2210	253
3	13285	2210	253
3	13297	2215	254
3	13319	2215	254
3	13331	2220	255
3	13351	2220	254
3	13363	2225	255
3	13381	2225	254
3	13397	2230	255
3	13413	2230	255
3	13426	2235	256
3	13445	2235	256
3	13454	2240	257
3	13472	2240	257
3	13485	2245	258
3	13507	2245	258
3	13519	2250	259
3	13541	2250	259
3	13551	2255	260
3	13570	2255	260
3	13582	2260	261
3	13601	2260	261
3	13609	2265	262
3	13625	2265	262
3	13637	2270	263
3	13655	2270	263
3	13668	2275	264
3	13686	2275	263
3	13704	2280	264
3	13720	2280	264
3	13732	2285	265
3	13750	2285	265
3	13761	2290	266
3	13779	2290	266
3	13793	2295	267
3	13817	2295	267
3	13829	2300	268
3	13851	2300	268
3	13859	2305	269
3	13873	2305	269
3	13881	2310	270
3	13894	2310	270
3	13905	2315	271
3	13919	2315	271
3	13933	2320	272
3	13947	2320	271
3	13967	2325	272
3	13981	2325	271
3	13999	2330	272
3	14013	2330	271
3	14032	2335	272
3	14046	2335	271
3	14066	2340	272
3	14080	2340	271
3	14102	2345	272
3	14116	2345	271
3	14136	2350	272
3	14150	2350	272
3	14167	2355	273
3	14185	2355	273
3	14194	2360	274
3	14211	2360	274
3	14222	2365	275
3	14241	2365	275
3	14252	2370	276
3	14273	2370	276
3	14287	2375	277
3	14306	2375	277
3	14318	2380	278
3	14336	2380	278
3	14346	2385	279
3	14362	2385	279
3	14372	2390	280
3	14388	2390	280
3	14401	2395	281
3	14421	2395	281
3	14433	2400	282
3	14450	2400	282
3	14460	2405	283
3	14477	2405	283
3	14486	2410	284
3	14503	2410	284
3	14514	2415	285
3	14533	2415	285
3	14543	2420	286
3	14562	2420	286
3	14576	2425	287
3	14598	2425	287
3	14606	2430	288
3	14624	2430	288
3	14633	2435	289
3	14649	2435	289
3	14662	2440	290
3	14682	2440	290
3	14693	2445	291
3	14713	2445	291
3	14725	2450	292
3	14745	2450	292
3	14756	2455	293
3	14774	2455	292
3	14789	2460	293
3	14806	2460	293
3	14820	2465	294
3	14842	2465	294
3	14853	2470	295
3	14873	2470	295
3	14883	2475	296
3	14903	2475	296
3	14914	2480	297
3	14932	2480	297
3	14943	2485	298
3	14959	2485	297
3	14975	2490	298
3	14991	2490	297
3	15010	2495	298
3	15026	2495	297
3	15047	2500	298
3	15062	2500	297
3	15081	2505	298
3	15093	2505	298
3	15109	2510	299
3	15127	2510	299
3	15138	2515	300
3	15154	2515	300
3	15164	2520	301
3	15178	2520	301
3	15187	2525	302
3	15200	2525	302
3	15212	2530	303
3	15229	2530	303
3	15242	2535	304
3	15256	2535	303
3	15273	2540	304
3	15284	2540	303
3	15300	2545	304
3	15310	2545	303
3	15330	2550	304
3	15340	2550	303
3	15361	2555	304
3	15371	2555	303
3	15394	2560	304
3	15404	2560	303
3	15426	2565	304
3	15436	2565	304
3	15453	2570	305
3	15470	2570	305
3	15481	2575	306
3	15500	2575	306
3	15511	2580	307
3	15527	2580	307
3	15539	2585	308
3	15557	2585	308
3	15567	2590	309
3	15585	2590	309
3	15596	2595	310
3	15610	2595	310
3	15618	2600	311
3	15631	2600	311
3	15644	2605	312
3	15661	2605	312
3	15671	2610	313
3	15688	2610	313
3	15697	2615	314
3	15714	2615	314
3	15725	2620	315
3	15744	2620	315
3	15756	2625	316
3	15776	2625	315
3	15789	2630	316
3	15809	2630	315
3	15822	2635	316
3	15842	2635	315
3	15855	2640	316
3	15875	2640	315
3	15889	2645	316
3	15908	2645	315
3	15921	2650	316
3	15939	2650	316
3	15951	2655	317
3	15971	2655	317
3	15982	2660	318
3	16000	2660	318
3	16009	2665	319
3	16025	2665	319
3	16036	2670	320
3	16052	2670	320
3	16066	2675	321
3	16082	2675	320
3	16100	2680	321
3	16114	2680	320
3	16132	2685	321
3	16144	2685	321
3	16157	2690	322
3	16172	2690	322
3	16184	2695	323
3	16202	2695	323
3	16213	2700	324
3	16229	2700	324
3	16239	2705	325
3	16255	2705	325
3	16269	2710	326
3	16284	2710	325
3	16300	2715	326
3	16313	2715	325
3	16330	2720	326
3	16342	2720	325
3	16358	2725	326
3	16370	2725	325
3	16388	2730	326
3	16399	2730	325
3	16416	2735	326
3	16426	2735	325
3	16446	2740	326
3	16456	2740	325
3	16478	2745	326
3	16488	2745	326
3	16504	2750	327
3	16521	2750	327
3	16531	2755	328
3	16548	2755	328
3	16559	2760	329
3	16578	2760	329
3	16592	2765	330
3	16612	2765	329
3	16629	2770	330
3	16649	2770	329
3	16666	2775	330
3	16683	2775	329
3	16697	2780	330
3	16711	2780	329
3	16728	2785	330
3	16742	2785	329
3	16760	2790	330
3	16772	2790	329
3	16788	2795	330
3	16798	2795	329
3	16819	2800	330
3	16829	2800	329
3	16849	2805	330
3	16859	2805	330
3	16878	2810	331
3	16899	2810	331
3	16910	2815	332
3	16931	2815	332
3	16939	2820	333
3	16958	2820	333
3	16971	2825	334
3	16988	2825	334
3	17004	2830	335
3	17028	2830	335
3	17039	2835	336
3	17061	2835	336
3	17072	2840	337
3	17095	2840	337
3	17103	2845	338
3	17124	2845	338
3	17135	2850	339
3	17157	2850	339
3	17168	2855	340
3	17190	2855	340
3	17202	2860	341
3	17224	2860	341
3	17235	2865	342
3	17255	2865	341
3	17270	2870	342
3	17289	2870	341
3	17302	2875	342
3	17320	2875	341
3	17336	2880	342
3	17353	2880	341
3	17368	2885	342
3	17381	2885	342
3	17389	2890	343
3	17400	2890	343
3	17412	2895	344
3	17427	2895	344
3	17439	2900	345
3	17453	2900	344
3	17469	2905	345
3	17483	2905	344
3	17503	2910	345
3	17516	2910	344
3	17535	2915	345
3	17547	2915	344
3	17569	2920	345
3	17581	2920	345
3	17602	2925	346
3	17625	2925	346
3	17633	2930	347
3	17654	2930	347
3	17664	2935	348
3	17685	2935	348
3	17695	2940	349
3	17716	2940	349
3	17726	2945	350
3	17747	2945	350
3	17761	2950	351
3	17779	2950	350
3	17797	2955	351
3	17813	2955	351
3	17830	2960	352
3	17850	2960	352
3	17860	2965	353
3	17877	2965	353
3	17885	2970	354
3	17900	2970	354
3	17912	2975	355
3	17931	2975	355
3	17944	2980	356
3	17964	2980	355
3	17980	2985	356
3	18000	2985	355
3	18017	2990	356
3	18035	2990	355
3	18051	2995	356
3	18065	2995	355
3	18079	3000	356
3	18091	3000	355
3	18109	3005	356
3	18121	3005	355
3	18134	3010	356
3	18146	3010	355
3	18159	3015	356
3	18171	3015	355
3	18186	3020	356
3	18198	3020	355
3	18218	3025	356
3	18229	3025	355
3	18247	3030	356
3	18257	3030	355
3	18278	3035	356
3	18288	3035	355
3	18309	3040	356
3	18319	3040	355
3	18338	3045	356
3	18348	3045	355
3	18365	3050	356
3	18375	3050	355
3	18395	3055	356
3	18405	3055	355
3	18425	3060	356
3	18435	3060	355
3	18457	3065	356
3	18467	3065	355
3	18491	3070	356
3	18501	3070	355
3	18527	3075	356
3	18537	3075	355
3	18562	3080	356
3	18572	3080	356
3	18587	3085	357
3	18602	3085	357
3	18612	3090	358
3	18627	3090	358
3	18638	3095	359
3	18655	3095	359
3	18667	3100	360
3	18686	3100	360
3	18698	3105	361
3	18716	3105	360
3	18733	3110	361
3	18751	3110	360
3	18768	3115	361
3	18785	3115	360
3	18800	3120	361
3	18814	3120	360
3	18830	3125	361
3	18842	3125	360
3	18861	3130	361
3	18873	3130	360
3	18889	3135	361
3	18901	3135	360
3	18919	3140	361
3	18931	3140	360
3	18952	3145	361
3	18964	3145	361
3	18985	3150	362
3	19007	3150	362
3	19016	3155	363
3	19036	3155	363
3	19048	3160	364
3	19068	3160	363
3	19081	3165	364
3	19101	3165	363
3	19115	3170	364
3	19135	3170	363
3	19150	3175	364
3	19170	3175	363
3	19186	3180	364
3	19204	3180	363
3	19218	3185	364
3	19234	3185	363
3	19251	3190	364
3	19266	3190	363
3	19280	3195	364
3	19293	3195	363
3	19307	3200	364
3	19319	3200	363
3	19337	3205	364
3	19348	3205	363
3	19365	3210	364
3	19375	3210	363
3	19395	3215	364
3	19405	3215	363
3	19426	3220	364
3	19436	3220	363
3	19461	3225	364
3	19471	3225	364
3	19488	3230	365
3	19504	3230	365
3	19515	3235	366
3	19531	3235	366
3	19542	3240	367
3	19558	3240	367
3	19570	3245	368
3	19588	3245	368
3	19601	3250	369
3	19623	3250	369
3	19638	3255	370
3	19658	3255	370
3	19671	3260	371
3	19691	3260	371
3	19700	3265	372
3	19718	3265	372
3	19729	3270	373
3	19745	3270	373
3	19757	3275	374
3	19777	3275	374
3	19789	3280	375
3	19811	3280	375
3	19823	3285	376
3	19844	3285	376
3	19853	3290	377
3	19872	3290	377
3	19880	3295	378
3	19897	3295	378
3	19907	3300	379
3	19922	3300	379
3	19933	3305	380
3	19947	3305	379
3	19963	3310	380
3	19977	3310	379
3	19996	3315	380
3	20009	3315	379
3	20028	3320	380
3	20040	3320	380
3	20058	3325	381
3	20076	3325	381
3	20086	3330	382
3	20105	3330	382
3	20116	3335	383
3	20134	3335	382
3	20148	3340	383
3	20165	3340	383
3	20178	3345	384
3	20199	3345	384
3	20209	3350	385
3	20228	3350	385
3	20238	3355	386
3	20258	3355	386
3	20270	3360	387
3	20290	3360	387
3	20301	3365	388
3	20318	3365	388
3	20331	3370	389
3	20349	3370	389
3	20357	3375	390
3	20373	3375	390
3	20385	3380	391
3	20401	3380	391
3	20410	3385	392
3	20425	3385	392
3	20437	3390	393
3	20454	3390	393
3	20462	3395	394
3	20477	3395	394
3	20488	3400	395
3	20503	3400	395
3	20513	3405	396
3	20530	3405	396
3	20542	3410	397
3	20558	3410	396
3	20571	3415	397
3	20585	3415	396
3	20604	3420	397
3	20618	3420	396
3	20639	3425	397
3	20652	3425	396
3	20670	3430	397
3	20682	3430	396
3	20701	3435	397
3	20713	3435	396
3	20735	3440	397
3	20746	3440	396
3	20766	3445	397
3	20776	3445	397
3	20793	3450	398
3	20808	3450	398
3	20817	3455	399
3	20832	3455	399
3	20844	3460	400
3	20857	3460	400
3	20869	3465	401
3	20884	3465	401
3	20896	3470	402
3	20915	3470	402
3	20928	3475	403
3	20944	3475	402
3	20959	3480	403
3	20973	3480	402
3	20990	3485	403
3	21004	3485	402
3	21022	3490	403
3	21036	3490	402
3	21052	3495	403
3	21066	3495	402
3	21085	3500	403
3	21099	3500	402
3	21120	3505	403
3	21134	3505	402
3	21152	3510	403
3	21165	3510	402
3	21181	3515	403
3	21193	3515	403
3	21207	3520	404
3	21224	3520	404
3	21236	3525	405
3	21256	3525	405
3	21268	3530	406
3	21288	3530	405
3	21304	3535	406
3	21324	3535	405
3	21343	3540	406
3	21359	3540	405
3	21370	3545	406
3	21382	3545	405
3	21397	3550	406
3	21409	3550	405
3	21424	3555	406
3	21436	3555	405
3	21453	3560	406
3	21465	3560	405
3	21488	3565	406
3	21500	3565	405
3	21523	3570	406
3	21535	3570	405
3	21554	3575	406
3	21566	3575	406
3	21582	3580	407
3	21598	3580	407
3	21607	3585	408
3	21622	3585	408
3	21634	3590	409
3	21653	3590	409
3	21663	3595	410
3	21682	3595	410
3	21695	3600	411
3	21715	3600	410
4	3	5	1
4	34	10	1
4	65	15	1
4	96	20	1
4	129	25	1
4	165	30	1
4	198	35	1
4	233	40	1
4	262	45	1
4	288	50	1
4	313	55	1
4	343	60	1
4	377	65	1
4	413	70	1
4	446	75	1
4	476	80	1
4	508	85	1
4	542	90	1
4	575	95	1
4	611	100	1
4	649	105	1
4	684	110	1
4	712	115	1
4	741	120	1
4	773	125	1
4	805	130	1
4	839	135	1
4	868	140	1
4	896	145	1
4	926	150	1
4	951	155	1
4	979	160	1
4	1007	165	1
4	1038	170	1
4	1073	175	1
4	1111	180	1
4	1142	185	1
4	1169	190	1
4	1196	195	1
4	1226	200	1
4	1257	205	1
4	1291	210	1
4	1327	215	1
4	1361	220	1
4	1393	225	1
4	1423	230	1
4	1456	235	1
4	1494	240	1
4	1525	245	1
4	1556	250	1
4	1587	255	1
4	1616	260	1
4	1648	265	1
4	1684	270	1
4	1715	275	1
4	1747	280	1
4	1776	285	1
4	1802	290	1
4	1830	295	1
4	1860	300	1
4	1885	305	1
4	1911	310	1
4	1942	315	1
4	1977	320	1
4	2009	325	1
4	2035	330	1
4	2063	335	1
4	2094	340	1
4	2124	345	1
4	2157	350	1
4	2194	355	1
4	2226	360	1
4	2255	365	1
4	2284	370	1
4	2313	375	1
4	2340	380	1
4	2373	385	1
4	2405	390	1
4	2438	395	1
4	2468	400	1
4	2496	405	1
4	2525	410	1
4	2552	415	1
4	2583	420	1
4	2617	425	1
4	2649	430	1
4	2683	435	1
4	2715	440	1
4	2749	445	1
4	2781	450	1
4	2815	455	1
4	2844	460	1
4	2875	465	1
4	2903	470	1
4	2932	475	1
4	2958	480	1
4	2988	485	1
4	3021	490	1
4	3051	495	1
4	3082	500	1
4	3113	505	1
4	3144	510	1
4	3172	515	1
4	3199	520	1
4	3226	525	1
4	3251	530	1
4	3278	535	1
4	3312	540	1
4	3347	545	1
4	3383	550	1
4	3416	555	1
4	3446	560	1
4	3478	565	1
4	3507	570	1
4	3538	575	1
4	3568	580	1
4	3599	585	1
4	3631	590	1
4	3661	595	1
4	3693	600	1
4	3723	605	1
4	3754	610	1
4	3785	615	1
4	3820	620	1
4	3851	625	1
4	3878	630	1
4	3902	635	1
4	3928	640	1
4	3951	645	1
4	3977	650	1
4	4007	655	1
4	4041	660	1
4	4074	665	1
4	4103	670	1
4	4130	675	1
4	4157	680	1
4	4187	685	1
4	4220	690	1
4	4255	695	1
4	4287	700	1
4	4320	705	1
4	4348	710	1
4	4378	715	1
4	4410	720	1
4	4445	725	1
4	4478	730	1
4	4509	735	1
4	4542	740	1
4	4573	745	1
4	4603	750	1
4	4635	755	1
4	4671	760	1
4	4702	765	1
4	4734	770	1
4	4768	775	1
4	4800	780	1
4	4834	785	1
4	4866	790	1
4	4892	795	1
4	4918	800	1
4	4943	805	1
4	4969	810	1
4	4999	815	1
4	5033	820	1
4	5061	825	1
4	5090	830	1
4	5119	835	1
4	5144	840	1
4	5172	845	1
4	5206	850	1
4	5239	855	1
4	5269	860	1
4	5300	865	1
4	5327	870	1
4	5355	875	1
4	5383	880	1
4	5410	885	1
4	5440	890	1
4	5465	895	1
4	5491	900	1
4	5514	905	1
4	5539	910	1
4	5569	915	1
4	5600	920	1
4	5630	925	1
4	5663	930	1
4	5694	935	1
4	5726	940	1
4	5759	945	1
4	5786	950	1
4	5815	955	1
4	5845	960	1
4	5877	965	1
4	5902	970	1
4	5930	975	1
4	5957	980	1
4	5986	985	1
4	6019	990	1
4	6050	995	1
4	6077	1000	1
4	6105	1005	1
4	6135	1010	1
4	6168	1015	1
4	6200	1020	1
4	6233	1025	1
4	6266	1030	1
4	6295	1035	1
4	6320	1040	1
4	6347	1045	1
4	6376	1050	1
4	6406	1055	1
4	6435	1060	1
4	6463	1065	1
4	6492	1070	1
4	6522	1075	1
4	6554	1080	1
4	6584	1085	1
4	6608	1090	1
4	6635	1095	1
4	6662	1100	1
4	6693	1105	1
4	6722	1110	1
4	6754	1115	1
4	6783	1120	1
4	6812	1125	1
4	6838	1130	1
4	6862	1135	1
4	6888	1140	1
4	6917	1145	1
4	6948	1150	1
4	6978	1155	1
4	7011	1160	1
4	7044	1165	1
4	7078	1170	1
4	7105	1175	1
4	7129	1180	1
4	7155	1185	1
4	7179	1190	1
4	7208	1195	1
4	7238	1200	1
4	7270	1205	1
4	7299	1210	1
4	7330	1215	1
4	7359	1220	1
4	7391	1225	1
4	7418	1230	1
4	7446	1235	1
4	7472	1240	1
4	7501	1245	1
4	7527	1250	1
4	7554	1255	1
4	7580	1260	1
4	7608	1265	1
4	7639	1270	1
4	7675	1275	1
4	7702	1280	1
4	7729	1285	1
4	7755	1290	1
4	7785	1295	1
4	7817	1300	1
4	7852	1305	1
4	7885	1310	1
4	7916	1315	1
4	7946	1320	1
4	7974	1325	1
4	8003	1330	1
4	8031	1335	1
4	8064	1340	1
4	8095	1345	1
4	8126	1350	1
4	8158	1355	1
4	8188	1360	1
4	8220	1365	1
4	8254	1370	1
4	8285	1375	1
4	8313	1380	1
4	8344	1385	1
4	8373	1390	1
4	8403	1395	1
4	8428	1400	1
4	8456	1405	1
4	8485	1410	1
4	8517	1415	1
4	8553	1420	1
4	8585	1425	1
4	8618	1430	1
4	8644	1435	1
4	8671	1440	1
4	8701	1445	1
4	8731	1450	1
4	8758	1455	1
4	8788	1460	1
4	8817	1465	1
4	8844	1470	1
4	8874	1475	1
4	8901	1480	1
4	8930	1485	1
4	8958	1490	1
4	8989	1495	1
4	9022	1500	1
4	9057	1505	1
4	9090	1510	1
4	9120	1515	1
4	9148	1520	1
4	9177	1525	1
4	9208	1530	1
4	9243	1535	1
4	9277	1540	1
4	9308	1545	1
4	9339	1550	1
4	9373	1555	1
4	9405	1560	1
4	9439	1565	1
4	9471	1570	1
4	9500	1575	1
4	9525	1580	1
4	9551	1585	1
4	9581	1590	1
4	9615	1595	1
4	9649	1600	1
4	9682	1605	1
4	9715	1610	1
4	9745	1615	1
4	9773	1620	1
4	9799	1625	1
4	9828	1630	1
4	9861	1635	1
4	9897	1640	1
4	9931	1645	1
4	9962	1650	1
4	9994	1655	1
4	10023	1660	1
4	10054	1665	1
4	10088	1670	1
4	10113	1675	1
4	10140	1680	1
4	10167	1685	1
4	10198	1690	1
4	10232	1695	1
4	10265	1700	1
4	10294	1705	1
4	10324	1710	1
4	10356	1715	1
4	10382	1720	1
4	10406	1725	1
4	10433	1730	1
4	10460	1735	1
4	10490	1740	1
4	10524	1745	1
4	10558	1750	1
4	10589	1755	1
4	10618	1760	1
4	10645	1765	1
4	10670	1770	1
4	10694	1775	1
4	10720	1780	1
4	10750	1785	1
4	10784	1790	1
4	10820	1795	1
4	10849	1800	1
4	10879	1805	1
4	10906	1810	1
4	10935	1815	1
4	10960	1820	1
4	10987	1825	1
4	11016	1830	1
4	11048	1835	1
4	11082	1840	1
4	11110	1845	1
4	11139	1850	1
4	11166	1855	1
4	11192	1860	1
4	11216	1865	1
4	11242	1870	1
4	11270	1875	1
4	11300	1880	1
4	11332	1885	1
4	11358	1890	1
4	11385	1895	1
4	11413	1900	1
4	11444	1905	1
4	11478	1910	1
4	11514	1915	1
4	11543	1920	1
4	11572	1925	1
4	11598	1930	1
4	11626	1935	1
4	11652	1940	1
4	11681	1945	1
4	11707	1950	1
4	11735	1955	1
4	11761	1960	1
4	11789	1965	1
4	11819	1970	1
4	11848	1975	1
4	11879	1980	1
4	11911	1985	1
4	11939	1990	1
4	11970	1995	1
4	11998	2000	1
4	12028	2005	1
4	12061	2010	1
4	12091	2015	1
4	12123	2020	1
4	12153	2025	1
4	12184	2030	1
4	12217	2035	1
4	12248	2040	1
4	12275	2045	1
4	12303	2050	1
4	12334	2055	1
4	12369	2060	1
4	12398	2065	1
4	12428	2070	1
4	12457	2075	1
4	12484	2080	1
4	12512	2085	1
4	12543	2090	1
4	12576	2095	1
4	12603	2100	1
4	12633	2105	1
4	12661	2110	1
4	12691	2115	1
4	12719	2120	1
4	12749	2125	1
4	12782	2130	1
4	12813	2135	1
4	12845	2140	1
4	12874	2145	1
4	12905	2150	1
4	12935	2155	1
4	12963	2160	1
4	12992	2165	1
4	13024	2170	1
4	13060	2175	1
4	13093	2180	1
4	13126	2185	1
4	13155	2190	1
4	13181	2195	1
4	13209	2200	1
4	13236	2205	1
4	13266	2210	1
4	13298	2215	1
4	13332	2220	1
4	13364	2225	1
4	13398	2230	1
4	13427	2235	1
4	13455	2240	1
4	13486	2245	1
4	13520	2250	1
4	13552	2255	1
4	13583	2260	1
4	13610	2265	1
4	13638	2270	1
4	13669	2275	1
4	13705	2280	1
4	13733	2285	1
4	13762	2290	1
4	13794	2295	1
4	13830	2300	1
4	13860	2305	1
4	13882	2310	1
4	13906	2315	1
4	13934	2320	1
4	13968	2325	1
4	14000	2330	1
4	14033	2335	1
4	14067	2340	1
4	14103	2345	1
4	14137	2350	1
4	14168	2355	1
4	14195	2360	1
4	14223	2365	1
4	14253	2370	1
4	14288	2375	1
4	14319	2380	1
4	14347	2385	1
4	14373	2390	1
4	14402	2395	1
4	14434	2400	1
4	14461	2405	1
4	14487	2410	1
4	14515	2415	1
4	14544	2420	1
4	14577	2425	1
4	14607	2430	1
4	14634	2435	1
4	14663	2440	1
4	14694	2445	1
4	14726	2450	1
4	14757	2455	1
4	14790	2460	1
4	14821	2465	1
4	14854	2470	1
4	14884	2475	1
4	14915	2480	1
4	14944	2485	1
4	14976	2490	1
4	15011	2495	1
4	15048	2500	1
4	15082	2505	1
4	15110	2510	1
4	15139	2515	1
4	15165	2520	1
4	15188	2525	1
4	15213	2530	1
4	15243	2535	1
4	15274	2540	1
4	15301	2545	1
4	15331	2550	1
4	15362	2555	1
4	15395	2560	1
4	15427	2565	1
4	15454	2570	1
4	15482	2575	1
4	15512	2580	1
4	15540	2585	1
4	15568	2590	1
4	15597	2595	1
4	15619	2600	1
4	15645	2605	1
4	15672	2610	1
4	15698	2615	1
4	15726	2620	1
4	15757	2625	1
4	15790	2630	1
4	15823	2635	1
4	15856	2640	1
4	15890	2645	1
4	15922	2650	1
4	15952	2655	1
4	15983	2660	1
4	16010	2665	1
4	16037	2670	1
4	16067	2675	1
4	16101	2680	1
4	16133	2685	1
4	16158	2690	1
4	16185	2695	1
4	16214	2700	1
4	16240	2705	1
4	16270	2710	1
4	16301	2715	1
4	16331	2720	1
4	16359	2725	1
4	16389	2730	1
4	16417	2735	1
4	16447	2740	1
4	16479	2745	1
4	16505	2750	1
4	16532	2755	1
4	16560	2760	1
4	16593	2765	1
4	16630	2770	1
4	16667	2775	1
4	16698	2780	1
4	16729	2785	1
4	16761	2790	1
4	16789	2795	1
4	16820	2800	1
4	16850	2805	1
4	16879	2810	1
4	16911	2815	1
4	16940	2820	1
4	16972	2825	1
4	17005	2830	1
4	17040	2835	1
[...]
47	16646	2770	1790
47	16992	2825	1840
47	17023	2830	1840
47	17057	2835	1840
47	17089	2840	1840
47	17120	2845	1840
47	17152	2850	1840
47	17185	2855	1840
47	17218	2860	1840
47	17250	2865	1840
47	17285	2870	1840
47	17317	2875	1840
47	17350	2880	1840
47	17556	2915	1870
47	17589	2920	1870
47	17619	2925	1870
47	17648	2930	1870
47	17679	2935	1870
47	17710	2940	1870
47	17741	2945	1870
47	17775	2950	1870
47	17810	2955	1870
47	17843	2960	1870
47	18264	3030	1935
47	18295	3035	1935
47	18514	3070	1965
47	18548	3075	1965
47	18719	3105	1990
47	18754	3110	1990
47	18938	3140	2015
47	18970	3145	2015
47	19001	3150	2015
47	19031	3155	2015
47	19063	3160	2015
47	19096	3165	2015
47	19130	3170	2015
47	19165	3175	2015
47	19200	3180	2015
47	19231	3185	2015
47	19264	3190	2015
47	19292	3195	2015
47	19318	3200	2015
47	19663	3255	2065
47	19774	3275	2080
47	19806	3280	2080
47	19838	3285	2080
47	19866	3290	2080
47	19893	3295	2080
47	19919	3300	2080
47	19944	3305	2080
47	19974	3310	2080
47	20103	3330	2095
47	20133	3335	2095
47	20289	3360	2115
47	20400	3380	2130
47	20423	3385	2130
47	20449	3390	2130
47	20473	3395	2130
47	20499	3400	2130
47	20524	3405	2130
47	20757	3440	2160
47	20783	3445	2160
47	20949	3475	2185
47	20978	3480	2185
47	21009	3485	2185
47	21040	3490	2185
47	21069	3495	2185
47	21102	3500	2185
47	21329	3535	2215
47	21470	3560	2235
47	21504	3565	2235
47	21718	3600	2265
48	253	40	1
48	276	45	1
48	299	50	1
48	323	55	1
48	353	60	1
48	387	65	1
48	423	70	1
48	456	75	1
48	486	80	1
48	518	85	1
48	673	105	1
48	857	135	1
48	881	140	1
48	908	145	1
48	1133	180	1
48	1277	205	1
48	1311	210	1
48	1346	215	1
48	1634	260	1
48	1666	265	1
48	1699	270	1
48	1727	275	1
48	1759	280	1
48	1964	315	1
48	2177	350	1
48	2210	355	1
48	2237	360	1
48	2265	365	1
48	2294	370	1
48	2425	390	1
48	2637	425	1
48	2667	430	1
48	2801	450	1
48	3008	485	1
48	3039	490	1
48	3067	495	1
48	3239	525	1
48	3263	530	1
48	3290	535	1
48	3323	540	1
48	3357	545	1
48	3393	550	1
48	3554	575	1
48	3582	580	1
48	3613	585	1
48	3991	650	1
48	4021	655	1
48	4054	660	1
48	4085	665	1
48	4205	685	1
48	4238	690	1
48	4396	715	1
48	4428	720	1
48	4462	725	1
48	4493	730	1
48	4523	735	1
48	4555	740	1
48	4584	745	1
48	4613	750	1
48	4645	755	1
48	4820	780	1
48	4852	785	1
48	4880	790	1
48	4983	810	1
48	5013	815	1
48	5188	845	1
48	5221	850	1
48	5252	855	1
48	5281	860	1
48	5311	865	1
48	5337	870	1
48	5365	875	1
48	5393	880	1
48	5420	885	1
48	5450	890	1
48	5475	895	1
48	5587	915	1
48	5746	940	1
48	5775	945	1
48	5798	950	1
48	5827	955	1
48	5857	960	1
48	6004	985	1
48	6479	1065	1
48	6508	1070	1
48	6538	1075	1
48	6568	1080	1
48	6678	1100	1
48	6708	1105	1
48	6736	1110	1
48	6768	1115	1
48	6797	1120	1
48	6824	1125	1
48	6848	1130	1
48	6872	1135	1
48	6898	1140	1
48	6927	1145	1
48	6958	1150	1
48	6988	1155	1
48	7021	1160	1
48	7054	1165	1
48	7348	1215	1
48	7375	1220	1
48	7541	1250	1
48	7565	1255	1
48	7590	1260	1
48	7618	1265	1
48	7649	1270	1
48	7874	1305	1
48	7903	1310	1
48	8049	1335	1
48	8080	1340	1
48	8109	1345	1
48	8140	1350	1
48	8172	1355	1
48	8202	1360	1
48	8234	1365	1
48	8442	1400	1
48	8470	1405	1
48	8499	1410	1
48	8531	1415	1
48	8567	1420	1
48	8599	1425	1
48	8719	1445	1
48	8746	1450	1
48	8772	1455	1
48	8974	1490	1
48	9005	1495	1
48	9038	1500	1
48	9071	1505	1
48	9102	1510	1
48	9131	1515	1
48	9158	1520	1
48	9187	1525	1
48	9218	1530	1
48	9253	1535	1
48	10153	1680	1
48	10179	1685	1
48	10210	1690	1
48	10244	1695	1
48	11866	1975	1
48	11897	1980	1
48	12354	2055	1
48	12563	2090	1
48	12767	2125	1
48	12799	2130	1
48	12829	2135	1
48	12860	2140	1
48	12888	2145	1
48	13046	2170	1
48	13081	2175	1
48	13113	2180	1
48	13144	2185	1
48	13318	2215	1
48	13350	2220	1
48	13380	2225	1
48	13412	2230	1
48	13724	2280	1
48	13747	2285	1
48	13776	2290	1
48	13808	2295	1
48	13989	2325	1
48	14018	2330	1
48	14051	2335	1
48	14085	2340	1
48	14120	2345	1
48	14152	2350	1
48	14181	2355	1
48	14207	2360	1
48	14235	2365	1
48	14265	2370	1
48	14299	2375	1
48	15126	2510	1
48	15317	2545	1
48	15347	2550	1
48	15378	2555	1
48	15409	2560	1
48	15438	2565	1
48	15464	2570	1
48	15492	2575	1
48	15522	2580	1
48	15550	2585	1
48	15578	2590	1
48	15742	2620	1
48	15773	2625	1
48	15806	2630	1
48	15839	2635	1
48	15872	2640	1
48	16087	2675	1
48	16119	2680	1
48	16319	2715	1
48	16346	2720	1
48	16373	2725	1
48	16576	2760	1
48	16609	2765	1
48	16646	2770	1
48	16992	2825	1
48	17023	2830	1
48	17057	2835	1
48	17089	2840	1
48	17120	2845	1
48	17152	2850	1
48	17185	2855	1
48	17218	2860	1
48	17250	2865	1
48	17285	2870	1
48	17317	2875	1
48	17350	2880	1
48	17556	2915	1
48	17589	2920	1
48	17619	2925	1
48	17648	2930	1
48	17679	2935	1
48	17710	2940	1
48	17741	2945	1
48	17775	2950	1
48	17810	2955	1
48	17843	2960	1
48	18264	3030	1
48	18295	3035	1
48	18514	3070	1
48	18548	3075	1
48	18719	3105	1
48	18754	3110	1
48	18938	3140	1
48	18970	3145	1
48	19001	3150	1
48	19031	3155	1
48	19063	3160	1
48	19096	3165	1
48	19130	3170	1
48	19165	3175	1
48	19200	3180	1
48	19231	3185	1
48	19264	3190	1
48	19292	3195	1
48	19318	3200	1
48	19663	3255	1
48	19774	3275	1
48	19806	3280	1
48	19838	3285	1
48	19866	3290	1
48	19893	3295	1
48	19919	3300	1
48	19944	3305	1
48	19974	3310	1
48	20103	3330	1
48	20133	3335	1
48	20289	3360	1
48	20400	3380	1
48	20423	3385	1
48	20449	3390	1
48	20473	3395	1
48	20499	3400	1
48	20524	3405	1
48	20757	3440	1
48	20783	3445	1
48	20949	3475	1
48	20978	3480	1
48	21009	3485	1
48	21040	3490	1
48	21069	3495	1
48	21102	3500	1
48	21329	3535	1
48	21470	3560	1
48	21504	3565	1
48	21718	3600	1
49	327	55	1
49	357	60	1
49	391	65	1
49	426	70	1
49	458	75	1
49	488	80	1
49	520	85	1
49	553	90	1
49	585	95	1
49	621	100	1
49	791	125	1
49	821	130	1
49	852	135	1
49	1056	170	1
49	1091	175	1
49	1244	200	1
49	1273	205	1
49	1307	210	1
49	1476	235	1
49	1702	270	1
49	1729	275	1
49	1761	280	1
49	1874	300	1
49	1895	305	1
49	1921	310	1
49	1952	315	1
49	2112	340	1
49	2140	345	1
49	2173	350	1
49	2703	435	1
49	2733	440	1
49	2766	445	1
49	2797	450	1
49	2972	480	1
49	3002	485	1
49	3035	490	1
49	3065	495	1
49	3096	500	1
49	3127	505	1
49	3333	540	1
49	3367	545	1
49	4025	655	1
49	4057	660	1
49	4087	665	1
49	4114	670	1
49	4307	700	1
49	4430	720	1
49	4464	725	1
49	4495	730	1
49	4525	735	1
49	4557	740	1
49	4586	745	1
49	4615	750	1
49	4647	755	1
49	4682	760	1
49	4712	765	1
49	4744	770	1
49	4778	775	1
49	4810	780	1
49	4844	785	1
49	5051	820	1
49	5075	825	1
49	5104	830	1
49	5287	860	1
49	5316	865	1
49	5341	870	1
49	5503	900	1
49	5524	905	1
49	5549	910	1
49	5579	915	1
49	5610	920	1
49	5640	925	1
49	5673	930	1
49	5704	935	1
49	5736	940	1
49	5943	975	1
49	5969	980	1
49	5998	985	1
49	6030	990	1
49	6060	995	1
49	6087	1000	1
49	6115	1005	1
49	6145	1010	1
49	6361	1045	1
49	6390	1050	1
49	6540	1075	1
49	6570	1080	1
49	6933	1145	1
49	7096	1170	1
49	7117	1175	1
49	7139	1180	1
49	7539	1250	1
49	7657	1270	1
49	7690	1275	1
49	7714	1280	1
49	7740	1285	1
49	7765	1290	1
49	7795	1295	1
49	7827	1300	1
49	7862	1305	1
49	7895	1310	1
49	7926	1315	1
49	8047	1335	1
49	8240	1365	1
49	8273	1370	1
49	8301	1375	1
49	8327	1380	1
49	8535	1415	1
49	9007	1495	1
49	9040	1500	1
49	9073	1505	1
49	9104	1510	1
49	9133	1515	1
49	9160	1520	1
49	9189	1525	1
49	9220	1530	1
49	9255	1535	1
49	9288	1540	1
49	9318	1545	1
49	9349	1550	1
49	9383	1555	1
49	9415	1560	1
49	9449	1565	1
49	9481	1570	1
49	9510	1575	1
49	9535	1580	1
49	9561	1585	1
49	9591	1590	1
49	9787	1620	1
49	9811	1625	1
49	9840	1630	1
49	9873	1635	1
49	9909	1640	1
49	9942	1645	1
49	9972	1650	1
49	10004	1655	1
49	10033	1660	1
49	10064	1665	1
49	10282	1700	1
49	10308	1705	1
49	10338	1710	1
49	10369	1715	1
49	10474	1735	1
49	10504	1740	1
49	10537	1745	1
49	10706	1775	1
49	10732	1780	1
49	10762	1785	1
49	10796	1790	1
49	10972	1820	1
49	10999	1825	1
49	11028	1830	1
49	11060	1835	1
49	11093	1840	1
49	11120	1845	1
49	11318	1880	1
49	11429	1900	1
49	11460	1905	1
49	11494	1910	1
49	11612	1930	1
49	11805	1965	1
49	11833	1970	1
49	11860	1975	1
49	11891	1980	1
49	11923	1985	1
49	11951	1990	1
49	12141	2020	1
49	12169	2025	1
49	12200	2030	1
49	12231	2035	1
49	12444	2070	1
49	12561	2090	1
49	12677	2110	1
49	12706	2115	1
49	12733	2120	1
49	12763	2125	1
49	12795	2130	1
49	12825	2135	1
49	12857	2140	1
49	12886	2145	1
49	12917	2150	1
49	12946	2155	1
49	12973	2160	1
49	13002	2165	1
49	13034	2170	1
49	13070	2175	1
49	13103	2180	1
49	13136	2185	1
49	13250	2205	1
49	13280	2210	1
49	13312	2215	1
49	13345	2220	1
49	13376	2225	1
49	13409	2230	1
49	13598	2260	1
49	13622	2265	1
49	13650	2270	1
49	13681	2275	1
49	13814	2295	1
49	13847	2300	1
49	13950	2320	1
49	14157	2350	1
49	14531	2415	1
49	14560	2420	1
49	14679	2440	1
49	14710	2445	1
49	14741	2450	1
49	14771	2455	1
49	14803	2460	1
49	14833	2465	1
49	14865	2470	1
49	14894	2475	1
49	14925	2480	1
49	14954	2485	1
49	14986	2490	1
49	15021	2495	1
49	15058	2500	1
49	15259	2535	1
49	15413	2560	1
49	16121	2680	1
49	16287	2710	1
49	16433	2735	1
49	16463	2740	1
49	16615	2765	1
49	16652	2770	1
49	16686	2775	1
49	16714	2780	1
49	16745	2785	1
49	16929	2815	1
49	16956	2820	1
49	16987	2825	1
49	17019	2830	1
49	17053	2835	1
49	17085	2840	1
49	17116	2845	1
49	17148	2850	1
49	17181	2855	1
49	17215	2860	1
49	17248	2865	1
49	17283	2870	1
49	17315	2875	1
49	17523	2910	1
49	17554	2915	1
49	17587	2920	1
49	17784	2950	1
49	18005	2985	1
49	18040	2990	1
49	18069	2995	1
49	18094	3000	1
49	18201	3020	1
49	18232	3025	1
49	18260	3030	1
49	18291	3035	1
49	18414	3055	1
49	18442	3060	1
49	18474	3065	1
49	18508	3070	1
49	18682	3100	1
49	18711	3105	1
49	18746	3110	1
49	18780	3115	1
49	18811	3120	1
49	18841	3125	1
49	18872	3130	1
49	18900	3135	1
49	18930	3140	1
49	18963	3145	1
49	19138	3170	1
49	19173	3175	1
49	19207	3180	1
49	19237	3185	1
49	19382	3210	1
49	19412	3215	1
49	19443	3220	1
49	19587	3245	1
49	19618	3250	1
49	19654	3255	1
49	19686	3260	1
49	19715	3265	1
49	19870	3290	1
49	19895	3295	1
49	20015	3315	1
49	20197	3345	1
49	20226	3350	1
49	20253	3355	1
49	20285	3360	1
49	20316	3365	1
49	20345	3370	1
49	20370	3375	1
49	20397	3380	1
49	20421	3385	1
49	20526	3405	1
49	20554	3410	1
49	20582	3415	1
49	20615	3420	1
49	20830	3455	1
49	21222	3520	1
49	21251	3525	1
49	21283	3530	1
49	21319	3535	1
49	21649	3590	1
49	21678	3595	1
49	21710	3600	1
50	327	55	50
50	357	60	50
50	391	65	50
50	426	70	50
50	458	75	50
50	488	80	50
50	520	85	50
50	553	90	50
50	585	95	50
50	621	100	50
50	791	125	70
50	821	130	70
50	852	135	70
50	1056	170	100
50	1091	175	100
50	1244	200	120
50	1273	205	120
50	1307	210	120
50	1476	235	140
50	1702	270	170
50	1729	275	170
50	1761	280	170
50	1874	300	185
50	1895	305	185
50	1921	310	185
50	1952	315	185
50	2112	340	205
50	2140	345	205
50	2173	350	205
50	2703	435	285
50	2733	440	285
50	2766	445	285
50	2797	450	285
50	2972	480	310
50	3002	485	310
50	3035	490	310
50	3065	495	310
50	3096	500	310
50	3127	505	310
50	3333	540	340
50	3367	545	340
50	4025	655	445
50	4057	660	445
50	4087	665	445
50	4114	670	445
50	4307	700	470
50	4430	720	485
50	4464	725	485
50	4495	730	485
50	4525	735	485
50	4557	740	485
50	4586	745	485
50	4615	750	485
50	4647	755	485
50	4682	760	485
50	4712	765	485
50	4744	770	485
50	4778	775	485
50	4810	780	485
50	4844	785	485
50	5051	820	515
50	5075	825	515
50	5104	830	515
50	5287	860	540
50	5316	865	540
50	5341	870	540
50	5503	900	565
50	5524	905	565
50	5549	910	565
50	5579	915	565
50	5610	920	565
50	5640	925	565
50	5673	930	565
50	5704	935	565
50	5736	940	565
50	5943	975	595
50	5969	980	595
50	5998	985	595
50	6030	990	595
50	6060	995	595
50	6087	1000	595
50	6115	1005	595
50	6145	1010	595
50	6361	1045	625
50	6390	1050	625
50	6540	1075	645
50	6570	1080	645
50	6933	1145	705
50	7096	1170	725
50	7117	1175	725
50	7139	1180	725
50	7539	1250	790
50	7657	1270	805
50	7690	1275	805
50	7714	1280	805
50	7740	1285	805
50	7765	1290	805
50	7795	1295	805
50	7827	1300	805
50	7862	1305	805
50	7895	1310	805
50	7926	1315	805
50	8047	1335	820
50	8240	1365	845
50	8273	1370	845
50	8301	1375	845
50	8327	1380	845
50	8535	1415	875
50	9007	1495	950
50	9040	1500	950
50	9073	1505	950
50	9104	1510	950
50	9133	1515	950
50	9160	1520	950
50	9189	1525	950
50	9220	1530	950
50	9255	1535	950
50	9288	1540	950
50	9318	1545	950
50	9349	1550	950
50	9383	1555	950
50	9415	1560	950
50	9449	1565	950
50	9481	1570	950
50	9510	1575	950
50	9535	1580	950
50	9561	1585	950
50	9591	1590	950
50	9787	1620	975
50	9811	1625	975
50	9840	1630	975
50	9873	1635	975
50	9909	1640	975
50	9942	1645	975
50	9972	1650	975
50	10004	1655	975
50	10033	1660	975
50	10064	1665	975
50	10282	1700	1005
50	10308	1705	1005
50	10338	1710	1005
50	10369	1715	1005
50	10474	1735	1020
50	10504	1740	1020
50	10537	1745	1020
50	10706	1775	1045
50	10732	1780	1045
50	10762	1785	1045
50	10796	1790	1045
50	10972	1820	1070
50	10999	1825	1070
50	11028	1830	1070
50	11060	1835	1070
50	11093	1840	1070
50	11120	1845	1070
50	11318	1880	1100
50	11429	1900	1115
50	11460	1905	1115
50	11494	1910	1115
50	11612	1930	1130
50	11805	1965	1160
50	11833	1970	1160
50	11860	1975	1160
50	11891	1980	1160
50	11923	1985	1160
50	11951	1990	1160
50	12141	2020	1185
50	12169	2025	1185
50	12200	2030	1185
50	12231	2035	1185
50	12444	2070	1215
50	12561	2090	1230
50	12677	2110	1245
50	12706	2115	1245
50	12733	2120	1245
50	12763	2125	1245
50	12795	2130	1245
50	12825	2135	1245
50	12857	2140	1245
50	12886	2145	1245
50	12917	2150	1245
50	12946	2155	1245
50	12973	2160	1245
50	13002	2165	1245
50	13034	2170	1245
50	13070	2175	1245
50	13103	2180	1245
50	13136	2185	1245
50	13250	2205	1260
50	13280	2210	1260
50	13312	2215	1260
50	13345	2220	1260
50	13376	2225	1260
50	13409	2230	1260
50	13598	2260	1285
50	13622	2265	1285
50	13650	2270	1285
50	13681	2275	1285
50	13814	2295	1300
50	13847	2300	1300
50	13950	2320	1315
50	14157	2350	1340
50	14531	2415	1400
50	14560	2420	1400
50	14679	2440	1415
50	14710	2445	1415
50	14741	2450	1415
50	14771	2455	1415
50	14803	2460	1415
50	14833	2465	1415
50	14865	2470	1415
50	14894	2475	1415
50	14925	2480	1415
50	14954	2485	1415
50	14986	2490	1415
50	15021	2495	1415
50	15058	2500	1415
50	15259	2535	1445
50	15413	2560	1465
50	16121	2680	1580
50	16287	2710	1605
50	16433	2735	1625
50	16463	2740	1625
50	16615	2765	1645
50	16652	2770	1645
50	16686	2775	1645
50	16714	2780	1645
50	16745	2785	1645
50	16929	2815	1670
50	16956	2820	1670
50	16987	2825	1670
50	17019	2830	1670
50	17053	2835	1670
50	17085	2840	1670
50	17116	2845	1670
50	17148	2850	1670
50	17181	2855	1670
50	17215	2860	1670
50	17248	2865	1670
50	17283	2870	1670
50	17315	2875	1670
50	17523	2910	1700
50	17554	2915	1700
50	17587	2920	1700
50	17784	2950	1725
50	18005	2985	1755
50	18040	2990	1755
50	18069	2995	1755
50	18094	3000	1755
50	18201	3020	1770
50	18232	3025	1770
50	18260	3030	1770
50	18291	3035	1770
50	18414	3055	1785
50	18442	3060	1785
50	18474	3065	1785
50	18508	3070	1785
50	18682	3100	1810
50	18711	3105	1810
50	18746	3110	1810
50	18780	3115	1810
50	18811	3120	1810
50	18841	3125	1810
50	18872	3130	1810
50	18900	3135	1810
50	18930	3140	1810
50	18963	3145	1810
50	19138	3170	1830
50	19173	3175	1830
50	19207	3180	1830
50	19237	3185	1830
50	19382	3210	1850
50	19412	3215	1850
50	19443	3220	1850
50	19587	3245	1870
50	19618	3250	1870
50	19654	3255	1870
50	19686	3260	1870
50	19715	3265	1870
50	19870	3290	1890
50	19895	3295	1890
50	20015	3315	1905
50	20197	3345	1930
50	20226	3350	1930
50	20253	3355	1930
50	20285	3360	1930
50	20316	3365	1930
50	20345	3370	1930
50	20370	3375	1930
50	20397	3380	1930
50	20421	3385	1930
50	20526	3405	1945
50	20554	3410	1945
50	20582	3415	1945
50	20615	3420	1945
50	20830	3455	1975
50	21222	3520	2035
50	21251	3525	2035
50	21283	3530	2035
50	21319	3535	2035
50	21649	3590	2085
50	21678	3595	2085
50	21710	3600	2085
51	327	55	1
51	357	60	1
51	391	65	1
51	426	70	1
51	458	75	1
51	488	80	1
51	520	85	1
51	553	90	1
51	585	95	1
51	621	100	1
51	791	125	1
51	821	130	1
51	852	135	1
51	1056	170	1
51	1091	175	1
51	1244	200	1
51	1273	205	1
51	1307	210	1
51	1476	235	1
51	1702	270	1
51	1729	275	1
51	1761	280	1
51	1874	300	1
51	1895	305	1
51	1921	310	1
51	1952	315	1
51	2112	340	1
51	2140	345	1
51	2173	350	1
51	2703	435	1
51	2733	440	1
51	2766	445	1
51	2797	450	1
51	2972	480	1
51	3002	485	1
51	3035	490	1
51	3065	495	1
51	3096	500	1
51	3127	505	1
51	3333	540	1
51	3367	545	1
51	4025	655	1
51	4057	660	1
51	4087	665	1
51	4114	670	1
51	4307	700	1
51	4430	720	1
51	4464	725	1
51	4495	730	1
51	4525	735	1
51	4557	740	1
51	4586	745	1
51	4615	750	1
51	4647	755	1
51	4682	760	1
51	4712	765	1
51	4744	770	1
51	4778	775	1
51	4810	780	1
51	4844	785	1
51	5051	820	1
51	5075	825	1
51	5104	830	1
51	5287	860	1
51	5316	865	1
51	5341	870	1
51	5503	900	1
51	5524	905	1
51	5549	910	1
51	5579	915	1
51	5610	920	1
51	5640	925	1
51	5673	930	1
51	5704	935	1
51	5736	940	1
51	5943	975	1
51	5969	980	1
51	5998	985	1
51	6030	990	1
51	6060	995	1
51	6087	1000	1
51	6115	1005	1
51	6145	1010	1
51	6361	1045	1
51	6390	1050	1
51	6540	1075	1
51	6570	1080	1
51	6933	1145	1
51	7096	1170	1
51	7117	1175	1
51	7139	1180	1
51	7539	1250	1
51	7657	1270	1
51	7690	1275	1
51	7714	1280	1
51	7740	1285	1
51	7765	1290	1
51	7795	1295	1
51	7827	1300	1
51	7862	1305	1
51	7895	1310	1
51	7926	1315	1
51	8047	1335	1
51	8240	1365	1
51	8273	1370	1
51	8301	1375	1
51	8327	1380	1
51	8535	1415	1
51	9007	1495	1
51	9040	1500	1
51	9073	1505	1
51	9104	1510	1
51	9133	1515	1
51	9160	1520	1
51	9189	1525	1
51	9220	1530	1
51	9255	1535	1
51	9288	1540	1
51	9318	1545	1
51	9349	1550	1
51	9383	1555	1
51	9415	1560	1
51	9449	1565	1
51	9481	1570	1
51	9510	1575	1
51	9535	1580	1
51	9561	1585	1
51	9591	1590	1
51	9787	1620	1
51	9811	1625	1
51	9840	1630	1
51	9873	1635	1
51	9909	1640	1
51	9942	1645	1
51	9972	1650	1
51	10004	1655	1
51	10033	1660	1
51	10064	1665	1
51	10282	1700	1
51	10308	1705	1
51	10338	1710	1
51	10369	1715	1
51	10474	1735	1
51	10504	1740	1
51	10537	1745	1
51	10706	1775	1
51	10732	1780	1
51	10762	1785	1
51	10796	1790	1
51	10972	1820	1
51	10999	1825	1
51	11028	1830	1
51	11060	1835	1
51	11093	1840	1
51	11120	1845	1
51	11318	1880	1
51	11429	1900	1
51	11460	1905	1
51	11494	1910	1
51	11612	1930	1
51	11805	1965	1
51	11833	1970	1
51	11860	1975	1
51	11891	1980	1
51	11923	1985	1
51	11951	1990	1
51	12141	2020	1
51	12169	2025	1
51	12200	2030	1
51	12231	2035	1
51	12444	2070	1
51	12561	2090	1
51	12677	2110	1
51	12706	2115	1
51	12733	2120	1
51	12763	2125	1
51	12795	2130	1
51	12825	2135	1
51	12857	2140	1
51	12886	2145	1
51	12917	2150	1
51	12946	2155	1
51	12973	2160	1
51	13002	2165	1
51	13034	2170	1
51	13070	2175	1
51	13103	2180	1
51	13136	2185	1
51	13250	2205	1
51	13280	2210	1
51	13312	2215	1
51	13345	2220	1
51	13376	2225	1
51	13409	2230	1
51	13598	2260	1
51	13622	2265	1
51	13650	2270	1
51	13681	2275	1
51	13814	2295	1
51	13847	2300	1
51	13950	2320	1
51	14157	2350	1
51	14531	2415	1
51	14560	2420	1
51	14679	2440	1
51	14710	2445	1
51	14741	2450	1
51	14771	2455	1
51	14803	2460	1
51	14833	2465	1
51	14865	2470	1
51	14894	2475	1
51	14925	2480	1
51	14954	2485	1
51	14986	2490	1
51	15021	2495	1
51	15058	2500	1
51	15259	2535	1
51	15413	2560	1
51	16121	2680	1
51	16287	2710	1
51	16433	2735	1
51	16463	2740	1
51	16615	2765	1
51	16652	2770	1
51	16686	2775	1
51	16714	2780	1
51	16745	2785	1
51	16929	2815	1
51	16956	2820	1
51	16987	2825	1
51	17019	2830	1
51	17053	2835	1
51	17085	2840	1
51	17116	2845	1
51	17148	2850	1
51	17181	2855	1
51	17215	2860	1
51	17248	2865	1
51	17283	2870	1
51	17315	2875	1
51	17523	2910	1
51	17554	2915	1
51	17587	2920	1
51	17784	2950	1
51	18005	2985	1
51	18040	2990	1
51	18069	2995	1
51	18094	3000	1
51	18201	3020	1
51	18232	3025	1
51	18260	3030	1
51	18291	3035	1
51	18414	3055	1
51	18442	3060	1
51	18474	3065	1
51	18508	3070	1
51	18682	3100	1
51	18711	3105	1
51	18746	3110	1
51	18780	3115	1
51	18811	3120	1
51	18841	3125	1
51	18872	3130	1
51	18900	3135	1
51	18930	3140	1
51	18963	3145	1
51	19138	3170	1
51	19173	3175	1
51	19207	3180	1
51	19237	3185	1
51	19382	3210	1
51	19412	3215	1
51	19443	3220	1
51	19587	3245	1
51	19618	3250	1
51	19654	3255	1
51	19686	3260	1
51	19715	3265	1
51	19870	3290	1
51	19895	3295	1
51	20015	3315	1
51	20197	3345	1
51	20226	3350	1
51	20253	3355	1
51	20285	3360	1
51	20316	3365	1
51	20345	3370	1
51	20370	3375	1
51	20397	3380	1
51	20421	3385	1
51	20526	3405	1
51	20554	3410	1
51	20582	3415	1
51	20615	3420	1
51	20830	3455	1
51	21222	3520	1
51	21251	3525	1
51	21283	3530	1
51	21319	3535	1
51	21649	3590	1
51	21678	3595	1
51	21710	3600	1

