version 2
run ThirdVerification-0-20201214-14:23:54-8422
attr configname ThirdVerification
attr datetime 20201214-14:23:54
attr experiment ThirdVerification
attr inifile omnetpp.ini
attr iterationvars ""
attr iterationvarsf ""
attr measurement ""
attr network slottedNetwork
attr processid 8422
attr repetition 0
attr replication #0
attr resultdir results
attr runnumber 0
attr seedset 0
param **.numTransmitters 1
param **.numChannels 1
param **.bufferSize 5
param **.sendProbability 0.5
param **.expMean 10s
param **.timeSlotSize 5s
param **.thresh 20s
param **.deterministicInterarrivalTime true
param **.numTransmitters 1
param **.numChannels 1
param **.bufferSize 5
param **.sendProbability 1
param **.expMean 5s
param **.timeSlotSize 5s
param **.thresh 20s
param **.deterministicInterarrivalTime false

vector 0 slottedNetwork.ch throughput:vector ETV
attr source throughputSignal
vector 1 slottedNetwork.transmitters[0] numPacketCreated:vector ETV
attr source numPacketCreatedSignal
vector 2 slottedNetwork.receivers[0] numPacketReceived:vector ETV
attr source numPacketReceivedSignal
vector 3 slottedNetwork.receivers[0] responseTime:vector ETV
attr source responseTimeSignal
vector 4 slottedNetwork.receivers[0] threshold:vector ETV
attr source thresholdSignal
vector 5 slottedNetwork.transmitters[0] numPacketDiscarded:vector ETV
attr source numPacketDiscardedSignal
0	1	5	0
0	4	10	0
0	6	15	0
0	9	20	0
0	11	25	0
0	14	30	0
0	17	35	1
0	21	40	0
0	24	45	1
0	28	50	0
0	30	55	0
0	34	60	1
0	37	65	0
0	40	70	0
0	43	75	1
0	48	80	1
0	52	85	1
0	57	90	1
0	61	95	1
0	65	100	0
0	68	105	1
0	72	110	0
0	75	115	1
0	79	120	0
0	81	125	0
0	84	130	0
0	87	135	1
0	91	140	0
0	94	145	1
0	98	150	0
0	100	155	0
0	104	160	1
0	108	165	1
0	112	170	0
0	115	175	1
0	119	180	0
0	122	185	1
0	126	190	0
0	128	195	0
0	132	200	1
0	135	205	0
0	138	210	0
0	141	215	1
0	145	220	0
0	147	225	0
0	150	230	0
0	153	235	1
0	157	240	0
0	159	245	0
0	163	250	1
0	167	255	1
0	172	260	1
0	176	265	1
0	181	270	1
0	184	275	0
0	187	280	0
0	189	285	0
0	193	290	1
0	196	295	0
0	199	300	0
0	202	305	1
0	207	310	1
0	210	315	0
0	214	320	1
0	217	325	0
0	220	330	0
0	223	335	1
0	228	340	1
0	231	345	0
0	234	350	0
0	237	355	1
0	241	360	0
0	244	365	1
0	248	370	0
0	251	375	1
0	255	380	0
0	257	385	0
0	261	390	1
0	265	395	1
0	270	400	1
0	274	405	1
0	279	410	1
0	283	415	1
0	288	420	1
0	292	425	1
0	296	430	0
0	298	435	0
0	301	440	0
0	303	445	0
0	306	450	0
0	309	455	1
0	313	460	0
0	315	465	0
0	319	470	1
0	322	475	0
0	325	480	0
0	327	485	0
0	330	490	0
0	333	495	1
0	338	500	1
0	341	505	0
0	345	510	1
0	349	515	1
0	354	520	1
0	358	525	1
0	362	530	0
0	364	535	0
0	368	540	1
0	371	545	0
0	375	550	1
0	378	555	0
0	381	560	0
0	383	565	0
0	386	570	0
0	389	575	1
0	393	580	0
0	395	585	0
0	399	590	1
0	402	595	0
0	406	600	1
0	409	605	0
0	413	610	1
0	416	615	0
0	419	620	0
0	421	625	0
0	424	630	0
0	426	635	0
0	429	640	0
0	432	645	1
0	437	650	1
0	440	655	0
0	444	660	1
0	448	665	1
0	452	670	0
0	455	675	1
0	459	680	0
0	462	685	1
0	467	690	1
0	471	695	1
0	476	700	1
0	479	705	0
0	483	710	1
0	486	715	0
0	490	720	1
0	493	725	0
0	497	730	1
0	501	735	1
0	505	740	0
0	507	745	0
0	510	750	0
0	513	755	1
0	518	760	1
0	521	765	0
0	525	770	1
0	529	775	1
0	533	780	0
0	536	785	1
0	540	790	0
0	543	795	1
0	547	800	0
0	549	805	0
0	553	810	1
0	557	815	1
0	562	820	1
0	566	825	1
0	570	830	0
0	572	835	0
0	576	840	1
0	579	845	0
0	583	850	1
0	587	855	1
0	591	860	0
0	593	865	0
0	596	870	0
0	599	875	1
0	603	880	0
0	606	885	1
0	611	890	1
0	615	895	1
0	619	900	0
0	622	905	1
0	626	910	0
0	628	915	0
0	631	920	0
0	633	925	0
0	636	930	0
0	638	935	0
0	642	940	1
0	646	945	1
0	650	950	0
0	652	955	0
0	655	960	0
0	657	965	0
0	660	970	0
0	662	975	0
0	665	980	0
0	667	985	0
0	670	990	0
0	672	995	0
0	676	1000	1
0	680	1005	1
0	685	1010	1
0	688	1015	0
0	692	1020	1
0	696	1025	1
0	701	1030	1
0	705	1035	1
0	710	1040	1
0	713	1045	0
0	716	1050	0
0	718	1055	0
0	722	1060	1
0	725	1065	0
0	729	1070	1
0	733	1075	1
0	737	1080	0
0	739	1085	0
0	742	1090	0
0	744	1095	0
0	748	1100	1
0	751	1105	0
0	754	1110	0
0	757	1115	1
0	762	1120	1
0	766	1125	1
0	771	1130	1
0	775	1135	1
0	779	1140	0
0	782	1145	1
0	787	1150	1
0	790	1155	0
0	793	1160	0
0	795	1165	0
0	798	1170	0
0	800	1175	0
0	804	1180	1
0	807	1185	0
0	811	1190	1
0	815	1195	1
0	820	1200	1
0	824	1205	1
0	828	1210	0
0	831	1215	1
0	835	1220	0
0	837	1225	0
0	841	1230	1
0	845	1235	1
0	849	1240	0
0	851	1245	0
0	855	1250	1
0	859	1255	1
0	864	1260	1
0	868	1265	1
0	872	1270	0
0	874	1275	0
0	878	1280	1
0	882	1285	1
0	886	1290	0
0	889	1295	1
0	893	1300	0
0	896	1305	1
0	900	1310	0
0	902	1315	0
0	906	1320	1
0	910	1325	1
0	914	1330	0
0	916	1335	0
0	919	1340	0
0	921	1345	0
0	925	1350	1
0	929	1355	1
0	934	1360	1
0	937	1365	0
0	940	1370	0
0	942	1375	0
0	945	1380	0
0	947	1385	0
0	951	1390	1
0	955	1395	1
0	959	1400	0
0	961	1405	0
0	964	1410	0
0	966	1415	0
0	969	1420	0
0	972	1425	1
0	977	1430	1
0	980	1435	0
0	984	1440	1
0	987	1445	0
0	991	1450	1
0	994	1455	0
0	998	1460	1
0	1001	1465	0
0	1005	1470	1
0	1009	1475	1
0	1014	1480	1
0	1017	1485	0
0	1020	1490	0
0	1023	1495	1
0	1028	1500	1
0	1032	1505	1
0	1037	1510	1
0	1040	1515	0
0	1044	1520	1
0	1047	1525	0
0	1051	1530	1
0	1055	1535	1
0	1059	1540	0
0	1061	1545	0
0	1065	1550	1
0	1068	1555	0
0	1072	1560	1
0	1076	1565	1
0	1081	1570	1
0	1084	1575	0
0	1088	1580	1
0	1092	1585	1
0	1096	1590	0
0	1098	1595	0
0	1102	1600	1
0	1105	1605	0
0	1109	1610	1
0	1113	1615	1
0	1117	1620	0
0	1119	1625	0
0	1122	1630	0
0	1125	1635	1
0	1130	1640	1
0	1133	1645	0
0	1136	1650	0
0	1138	1655	0
0	1142	1660	1
0	1146	1665	1
0	1151	1670	1
0	1155	1675	1
0	1159	1680	0
0	1162	1685	1
0	1166	1690	0
0	1169	1695	1
0	1173	1700	0
0	1176	1705	1
0	1180	1710	0
0	1182	1715	0
0	1186	1720	1
0	1190	1725	1
0	1194	1730	0
0	1196	1735	0
0	1200	1740	1
0	1203	1745	0
0	1206	1750	0
0	1209	1755	1
0	1214	1760	1
0	1218	1765	1
0	1222	1770	0
0	1225	1775	1
0	1229	1780	0
0	1232	1785	1
0	1236	1790	0
0	1238	1795	0
0	1241	1800	0
0	1244	1805	1
0	1248	1810	0
0	1251	1815	1
0	1255	1820	0
0	1257	1825	0
0	1261	1830	1
0	1265	1835	1
0	1270	1840	1
0	1274	1845	1
0	1278	1850	0
0	1280	1855	0
0	1283	1860	0
0	1285	1865	0
0	1289	1870	1
0	1293	1875	1
0	1298	1880	1
0	1301	1885	0
0	1304	1890	0
0	1307	1895	1
0	1311	1900	0
0	1314	1905	1
0	1318	1910	0
0	1320	1915	0
0	1324	1920	1
0	1328	1925	1
0	1333	1930	1
0	1337	1935	1
0	1341	1940	0
0	1344	1945	1
0	1348	1950	0
0	1351	1955	1
0	1355	1960	0
0	1358	1965	1
0	1362	1970	0
0	1364	1975	0
0	1368	1980	1
0	1371	1985	0
0	1374	1990	0
0	1376	1995	0
0	1380	2000	1
0	1383	2005	0
0	1386	2010	0
0	1388	2015	0
0	1392	2020	1
0	1395	2025	0
0	1399	2030	1
0	1402	2035	0
0	1405	2040	0
0	1407	2045	0
0	1411	2050	1
0	1415	2055	1
0	1419	2060	0
0	1421	2065	0
0	1425	2070	1
0	1429	2075	1
0	1434	2080	1
0	1438	2085	1
0	1443	2090	1
0	1446	2095	0
0	1449	2100	0
0	1452	2105	1
0	1456	2110	0
0	1458	2115	0
0	1462	2120	1
0	1466	2125	1
0	1471	2130	1
0	1474	2135	0
0	1478	2140	1
0	1481	2145	0
0	1485	2150	1
0	1488	2155	0
0	1492	2160	1
0	1495	2165	0
0	1499	2170	1
0	1503	2175	1
0	1508	2180	1
0	1511	2185	0
0	1515	2190	1
0	1518	2195	0
0	1522	2200	1
0	1526	2205	1
0	1530	2210	0
0	1532	2215	0
0	1536	2220	1
0	1540	2225	1
0	1544	2230	0
0	1546	2235	0
0	1549	2240	0
0	1552	2245	1
0	1556	2250	0
0	1559	2255	1
0	1563	2260	0
0	1565	2265	0
0	1568	2270	0
0	1571	2275	1
0	1575	2280	0
0	1578	2285	1
0	1582	2290	0
0	1585	2295	1
0	1590	2300	1
0	1594	2305	1
0	1599	2310	1
0	1603	2315	1
0	1607	2320	0
0	1609	2325	0
0	1612	2330	0
0	1614	2335	0
0	1618	2340	1
0	1621	2345	0
0	1624	2350	0
0	1627	2355	1
0	1632	2360	1
0	1636	2365	1
0	1640	2370	0
0	1643	2375	1
0	1647	2380	0
0	1650	2385	1
0	1654	2390	0
0	1656	2395	0
0	1659	2400	0
0	1662	2405	1
0	1667	2410	1
0	1670	2415	0
0	1673	2420	0
0	1675	2425	0
0	1679	2430	1
0	1683	2435	1
0	1687	2440	0
0	1690	2445	1
0	1694	2450	0
0	1696	2455	0
0	1699	2460	0
0	1701	2465	0
0	1704	2470	0
0	1706	2475	0
0	1709	2480	0
0	1711	2485	0
0	1715	2490	1
0	1718	2495	0
0	1722	2500	1
0	1726	2505	1
0	1731	2510	1
0	1734	2515	0
0	1738	2520	1
0	1741	2525	0
0	1745	2530	1
0	1749	2535	1
0	1753	2540	0
0	1756	2545	1
0	1761	2550	1
0	1765	2555	1
0	1769	2560	0
0	1771	2565	0
0	1775	2570	1
0	1778	2575	0
0	1781	2580	0
0	1784	2585	1
0	1788	2590	0
0	1791	2595	1
0	1795	2600	0
0	1797	2605	0
0	1801	2610	1
0	1804	2615	0
0	1807	2620	0
0	1809	2625	0
0	1812	2630	0
0	1815	2635	1
0	1819	2640	0
0	1822	2645	1
0	1826	2650	0
0	1829	2655	1
0	1833	2660	0
0	1835	2665	0
0	1839	2670	1
0	1843	2675	1
0	1847	2680	0
0	1849	2685	0
0	1852	2690	0
0	1855	2695	1
0	1860	2700	1
0	1863	2705	0
0	1866	2710	0
0	1868	2715	0
0	1872	2720	1
0	1876	2725	1
0	1880	2730	0
0	1883	2735	1
0	1888	2740	1
0	1891	2745	0
0	1894	2750	0
0	1897	2755	1
0	1902	2760	1
0	1906	2765	1
0	1910	2770	0
0	1913	2775	1
0	1917	2780	0
0	1919	2785	0
0	1923	2790	1
0	1927	2795	1
0	1931	2800	0
0	1933	2805	0
0	1936	2810	0
0	1939	2815	1
0	1943	2820	0
0	1945	2825	0
0	1948	2830	0
0	1950	2835	0
0	1953	2840	0
0	1956	2845	1
0	1960	2850	0
0	1962	2855	0
0	1965	2860	0
0	1967	2865	0
0	1971	2870	1
0	1974	2875	0
0	1978	2880	1
0	1981	2885	0
0	1984	2890	0
0	1986	2895	0
0	1989	2900	0
0	1992	2905	1
0	1996	2910	0
0	1998	2915	0
0	2001	2920	0
0	2003	2925	0
0	2006	2930	0
0	2009	2935	1
0	2014	2940	1
0	2017	2945	0
0	2020	2950	0
0	2023	2955	1
0	2027	2960	0
0	2030	2965	1
0	2034	2970	0
0	2037	2975	1
0	2042	2980	1
0	2046	2985	1
0	2051	2990	1
0	2055	2995	1
0	2059	3000	0
0	2061	3005	0
0	2065	3010	1
0	2068	3015	0
0	2072	3020	1
0	2075	3025	0
0	2079	3030	1
0	2083	3035	1
0	2087	3040	0
0	2090	3045	1
0	2094	3050	0
0	2096	3055	0
0	2100	3060	1
0	2103	3065	0
0	2107	3070	1
0	2111	3075	1
0	2116	3080	1
0	2119	3085	0
0	2122	3090	0
0	2124	3095	0
0	2128	3100	1
0	2132	3105	1
0	2136	3110	0
0	2138	3115	0
0	2142	3120	1
0	2145	3125	0
0	2149	3130	1
0	2153	3135	1
0	2158	3140	1
0	2161	3145	0
0	2165	3150	1
0	2169	3155	1
0	2174	3160	1
0	2178	3165	1
0	2182	3170	0
0	2185	3175	1
0	2189	3180	0
0	2192	3185	1
0	2196	3190	0
0	2199	3195	1
0	2203	3200	0
0	2205	3205	0
0	2209	3210	1
0	2212	3215	0
0	2215	3220	0
0	2218	3225	1
0	2222	3230	0
0	2225	3235	1
0	2229	3240	0
0	2231	3245	0
0	2234	3250	0
0	2237	3255	1
0	2241	3260	0
0	2243	3265	0
0	2246	3270	0
0	2248	3275	0
0	2252	3280	1
0	2256	3285	1
0	2261	3290	1
0	2265	3295	1
0	2270	3300	1
0	2273	3305	0
0	2277	3310	1
0	2281	3315	1
0	2286	3320	1
0	2289	3325	0
0	2292	3330	0
0	2294	3335	0
0	2298	3340	1
0	2301	3345	0
0	2304	3350	0
0	2306	3355	0
0	2310	3360	1
0	2313	3365	0
0	2316	3370	0
0	2318	3375	0
0	2321	3380	0
0	2324	3385	1
0	2329	3390	1
0	2332	3395	0
0	2336	3400	1
0	2340	3405	1
0	2344	3410	0
0	2347	3415	1
0	2352	3420	1
0	2356	3425	1
0	2360	3430	0
0	2362	3435	0
0	2366	3440	1
0	2370	3445	1
0	2375	3450	1
0	2379	3455	1
0	2384	3460	1
0	2388	3465	1
0	2392	3470	0
0	2394	3475	0
0	2398	3480	1
0	2402	3485	1
0	2406	3490	0
0	2409	3495	1
0	2413	3500	0
0	2416	3505	1
0	2420	3510	0
0	2422	3515	0
0	2425	3520	0
0	2427	3525	0
0	2431	3530	1
0	2435	3535	1
0	2440	3540	1
0	2444	3545	1
0	2448	3550	0
0	2451	3555	1
0	2455	3560	0
0	2458	3565	1
0	2462	3570	0
0	2464	3575	0
0	2468	3580	1
0	2471	3585	0
0	2475	3590	1
0	2479	3595	1
0	2483	3600	0
1	3	10	1
1	8	20	1
1	13	30	1
1	20	40	1
1	27	50	1
1	33	60	1
1	39	70	1
1	47	80	1
1	56	90	1
1	64	100	1
1	71	110	1
1	78	120	1
1	83	130	1
1	90	140	1
1	97	150	1
1	103	160	1
1	111	170	1
1	118	180	1
1	125	190	1
1	131	200	1
1	137	210	1
1	144	220	1
1	149	230	1
1	156	240	1
1	162	250	1
1	171	260	1
1	180	270	1
1	186	280	1
1	192	290	1
1	198	300	1
1	206	310	1
1	213	320	1
1	219	330	1
1	227	340	1
1	233	350	1
1	240	360	1
1	247	370	1
1	254	380	1
1	260	390	1
1	269	400	1
1	278	410	1
1	287	420	1
1	295	430	1
1	300	440	1
1	305	450	1
1	312	460	1
1	318	470	1
1	324	480	1
1	329	490	1
1	337	500	1
1	344	510	1
1	353	520	1
1	361	530	1
1	367	540	1
1	374	550	1
1	380	560	1
1	385	570	1
1	392	580	1
1	398	590	1
1	405	600	1
1	412	610	1
1	418	620	1
1	423	630	1
1	428	640	1
1	436	650	1
1	443	660	1
1	451	670	1
1	458	680	1
1	466	690	1
1	475	700	1
1	482	710	1
1	489	720	1
1	496	730	1
1	504	740	1
1	509	750	1
1	517	760	1
1	524	770	1
1	532	780	1
1	539	790	1
1	546	800	1
1	552	810	1
1	561	820	1
1	569	830	1
1	575	840	1
1	582	850	1
1	590	860	1
1	595	870	1
1	602	880	1
1	610	890	1
1	618	900	1
1	625	910	1
1	630	920	1
1	635	930	1
1	641	940	1
1	649	950	1
1	654	960	1
1	659	970	1
1	664	980	1
1	669	990	1
1	675	1000	1
1	684	1010	1
1	691	1020	1
1	700	1030	1
1	709	1040	1
1	715	1050	1
1	721	1060	1
1	728	1070	1
1	736	1080	1
1	741	1090	1
1	747	1100	1
1	753	1110	1
1	761	1120	1
1	770	1130	1
1	778	1140	1
1	786	1150	1
1	792	1160	1
1	797	1170	1
1	803	1180	1
1	810	1190	1
1	819	1200	1
1	827	1210	1
1	834	1220	1
1	840	1230	1
1	848	1240	1
1	854	1250	1
1	863	1260	1
1	871	1270	1
1	877	1280	1
1	885	1290	1
1	892	1300	1
1	899	1310	1
1	905	1320	1
1	913	1330	1
1	918	1340	1
1	924	1350	1
1	933	1360	1
1	939	1370	1
1	944	1380	1
1	950	1390	1
1	958	1400	1
1	963	1410	1
1	968	1420	1
1	976	1430	1
1	983	1440	1
1	990	1450	1
1	997	1460	1
1	1004	1470	1
1	1013	1480	1
1	1019	1490	1
1	1027	1500	1
1	1036	1510	1
1	1043	1520	1
1	1050	1530	1
1	1058	1540	1
1	1064	1550	1
1	1071	1560	1
1	1080	1570	1
1	1087	1580	1
1	1095	1590	1
1	1101	1600	1
1	1108	1610	1
1	1116	1620	1
1	1121	1630	1
1	1129	1640	1
1	1135	1650	1
1	1141	1660	1
1	1150	1670	1
1	1158	1680	1
1	1165	1690	1
1	1172	1700	1
1	1179	1710	1
1	1185	1720	1
1	1193	1730	1
1	1199	1740	1
1	1205	1750	1
1	1213	1760	1
1	1221	1770	1
1	1228	1780	1
1	1235	1790	1
1	1240	1800	1
1	1247	1810	1
1	1254	1820	1
1	1260	1830	1
1	1269	1840	1
1	1277	1850	1
1	1282	1860	1
1	1288	1870	1
1	1297	1880	1
1	1303	1890	1
1	1310	1900	1
1	1317	1910	1
1	1323	1920	1
1	1332	1930	1
1	1340	1940	1
1	1347	1950	1
1	1354	1960	1
1	1361	1970	1
1	1367	1980	1
1	1373	1990	1
1	1379	2000	1
1	1385	2010	1
1	1391	2020	1
1	1398	2030	1
1	1404	2040	1
1	1410	2050	1
1	1418	2060	1
1	1424	2070	1
1	1433	2080	1
1	1442	2090	1
1	1448	2100	1
1	1455	2110	1
1	1461	2120	1
1	1470	2130	1
1	1477	2140	1
1	1484	2150	1
1	1491	2160	1
1	1498	2170	1
1	1507	2180	1
1	1514	2190	1
1	1521	2200	1
1	1529	2210	1
1	1535	2220	1
1	1543	2230	1
1	1548	2240	1
1	1555	2250	1
1	1562	2260	1
1	1567	2270	1
1	1574	2280	1
1	1581	2290	1
1	1589	2300	1
1	1598	2310	1
1	1606	2320	1
1	1611	2330	1
1	1617	2340	1
1	1623	2350	1
1	1631	2360	1
1	1639	2370	1
1	1646	2380	1
1	1653	2390	1
1	1658	2400	1
1	1666	2410	1
1	1672	2420	1
1	1678	2430	1
1	1686	2440	1
1	1693	2450	1
1	1698	2460	1
1	1703	2470	1
1	1708	2480	1
1	1714	2490	1
1	1721	2500	1
1	1730	2510	1
1	1737	2520	1
1	1744	2530	1
1	1752	2540	1
1	1760	2550	1
1	1768	2560	1
1	1774	2570	1
1	1780	2580	1
1	1787	2590	1
1	1794	2600	1
1	1800	2610	1
1	1806	2620	1
1	1811	2630	1
1	1818	2640	1
1	1825	2650	1
1	1832	2660	1
1	1838	2670	1
1	1846	2680	1
1	1851	2690	1
1	1859	2700	1
1	1865	2710	1
1	1871	2720	1
1	1879	2730	1
1	1887	2740	1
1	1893	2750	1
1	1901	2760	1
1	1909	2770	1
1	1916	2780	1
1	1922	2790	1
1	1930	2800	1
1	1935	2810	1
1	1942	2820	1
1	1947	2830	1
1	1952	2840	1
1	1959	2850	1
1	1964	2860	1
1	1970	2870	1
1	1977	2880	1
1	1983	2890	1
1	1988	2900	1
1	1995	2910	1
1	2000	2920	1
1	2005	2930	1
1	2013	2940	1
1	2019	2950	1
1	2026	2960	1
1	2033	2970	1
1	2041	2980	1
1	2050	2990	1
1	2058	3000	1
1	2064	3010	1
1	2071	3020	1
1	2078	3030	1
1	2086	3040	1
1	2093	3050	1
1	2099	3060	1
1	2106	3070	1
1	2115	3080	1
1	2121	3090	1
1	2127	3100	1
1	2135	3110	1
1	2141	3120	1
1	2148	3130	1
1	2157	3140	1
1	2164	3150	1
1	2173	3160	1
1	2181	3170	1
1	2188	3180	1
1	2195	3190	1
1	2202	3200	1
1	2208	3210	1
1	2214	3220	1
1	2221	3230	1
1	2228	3240	1
1	2233	3250	1
1	2240	3260	1
1	2245	3270	1
1	2251	3280	1
1	2260	3290	1
1	2269	3300	1
1	2276	3310	1
1	2285	3320	1
1	2291	3330	1
1	2297	3340	1
1	2303	3350	1
1	2309	3360	1
1	2315	3370	1
1	2320	3380	1
1	2328	3390	1
1	2335	3400	1
1	2343	3410	1
1	2351	3420	1
1	2359	3430	1
1	2365	3440	1
1	2374	3450	1
1	2383	3460	1
1	2391	3470	1
1	2397	3480	1
1	2405	3490	1
1	2412	3500	1
1	2419	3510	1
1	2424	3520	1
1	2430	3530	1
1	2439	3540	1
1	2447	3550	1
1	2454	3560	1
1	2461	3570	1
1	2467	3580	1
1	2474	3590	1
1	2482	3600	1
2	19	35	1
2	26	45	1
2	36	60	1
2	45	75	1
2	50	80	1
2	54	85	1
2	59	90	1
2	63	95	1
2	70	105	1
2	77	115	1
2	89	135	1
2	96	145	1
2	106	160	1
2	110	165	1
2	117	175	1
2	124	185	1
2	134	200	1
2	143	215	1
2	155	235	1
2	165	250	1
2	169	255	1
2	174	260	1
2	178	265	1
2	183	270	1
2	195	290	1
2	204	305	1
2	209	310	1
2	216	320	1
2	225	335	1
2	230	340	1
2	239	355	1
2	246	365	1
2	253	375	1
2	263	390	1
2	267	395	1
2	272	400	1
2	276	405	1
2	281	410	1
2	285	415	1
2	290	420	1
2	294	425	1
2	311	455	1
2	321	470	1
2	335	495	1
2	340	500	1
2	347	510	1
2	351	515	1
2	356	520	1
2	360	525	1
2	370	540	1
2	377	550	1
2	391	575	1
2	401	590	1
2	408	600	1
2	415	610	1
2	434	645	1
2	439	650	1
2	446	660	1
2	450	665	1
2	457	675	1
2	464	685	1
2	469	690	1
2	473	695	1
2	478	700	1
2	485	710	1
2	492	720	1
2	499	730	1
2	503	735	1
2	515	755	1
2	520	760	1
2	527	770	1
2	531	775	1
2	538	785	1
2	545	795	1
2	555	810	1
2	559	815	1
2	564	820	1
2	568	825	1
2	578	840	1
2	585	850	1
2	589	855	1
2	601	875	1
2	608	885	1
2	613	890	1
2	617	895	1
2	624	905	1
2	644	940	1
2	648	945	1
2	678	1000	1
2	682	1005	1
2	687	1010	1
2	694	1020	1
2	698	1025	1
2	703	1030	1
2	707	1035	1
2	712	1040	1
2	724	1060	1
2	731	1070	1
2	735	1075	1
2	750	1100	1
2	759	1115	1
2	764	1120	1
2	768	1125	1
2	773	1130	1
2	777	1135	1
2	784	1145	1
2	789	1150	1
2	806	1180	1
2	813	1190	1
2	817	1195	1
2	822	1200	1
2	826	1205	1
2	833	1215	1
2	843	1230	1
2	847	1235	1
2	857	1250	1
2	861	1255	1
2	866	1260	1
2	870	1265	1
2	880	1280	1
2	884	1285	1
2	891	1295	1
2	898	1305	1
2	908	1320	1
2	912	1325	1
2	927	1350	1
2	931	1355	1
2	936	1360	1
2	953	1390	1
2	957	1395	1
2	974	1425	1
2	979	1430	1
2	986	1440	1
2	993	1450	1
2	1000	1460	1
2	1007	1470	1
2	1011	1475	1
2	1016	1480	1
2	1025	1495	1
2	1030	1500	1
2	1034	1505	1
2	1039	1510	1
2	1046	1520	1
2	1053	1530	1
2	1057	1535	1
2	1067	1550	1
2	1074	1560	1
2	1078	1565	1
2	1083	1570	1
2	1090	1580	1
2	1094	1585	1
2	1104	1600	1
2	1111	1610	1
2	1115	1615	1
2	1127	1635	1
2	1132	1640	1
2	1144	1660	1
2	1148	1665	1
2	1153	1670	1
2	1157	1675	1
2	1164	1685	1
2	1171	1695	1
2	1178	1705	1
2	1188	1720	1
2	1192	1725	1
2	1202	1740	1
2	1211	1755	1
2	1216	1760	1
2	1220	1765	1
2	1227	1775	1
2	1234	1785	1
2	1246	1805	1
2	1253	1815	1
2	1263	1830	1
2	1267	1835	1
2	1272	1840	1
2	1276	1845	1
2	1291	1870	1
2	1295	1875	1
2	1300	1880	1
2	1309	1895	1
2	1316	1905	1
2	1326	1920	1
2	1330	1925	1
2	1335	1930	1
2	1339	1935	1
2	1346	1945	1
2	1353	1955	1
2	1360	1965	1
2	1370	1980	1
2	1382	2000	1
2	1394	2020	1
2	1401	2030	1
2	1413	2050	1
2	1417	2055	1
2	1427	2070	1
2	1431	2075	1
2	1436	2080	1
2	1440	2085	1
2	1445	2090	1
2	1454	2105	1
2	1464	2120	1
2	1468	2125	1
2	1473	2130	1
2	1480	2140	1
2	1487	2150	1
2	1494	2160	1
2	1501	2170	1
2	1505	2175	1
2	1510	2180	1
2	1517	2190	1
2	1524	2200	1
2	1528	2205	1
2	1538	2220	1
2	1542	2225	1
2	1554	2245	1
2	1561	2255	1
2	1573	2275	1
2	1580	2285	1
2	1587	2295	1
2	1592	2300	1
2	1596	2305	1
2	1601	2310	1
2	1605	2315	1
2	1620	2340	1
2	1629	2355	1
2	1634	2360	1
2	1638	2365	1
2	1645	2375	1
2	1652	2385	1
2	1664	2405	1
2	1669	2410	1
2	1681	2430	1
2	1685	2435	1
2	1692	2445	1
2	1717	2490	1
2	1724	2500	1
2	1728	2505	1
2	1733	2510	1
2	1740	2520	1
2	1747	2530	1
2	1751	2535	1
2	1758	2545	1
2	1763	2550	1
2	1767	2555	1
2	1777	2570	1
2	1786	2585	1
2	1793	2595	1
2	1803	2610	1
2	1817	2635	1
2	1824	2645	1
2	1831	2655	1
2	1841	2670	1
2	1845	2675	1
2	1857	2695	1
2	1862	2700	1
2	1874	2720	1
2	1878	2725	1
2	1885	2735	1
2	1890	2740	1
2	1899	2755	1
2	1904	2760	1
2	1908	2765	1
2	1915	2775	1
2	1925	2790	1
2	1929	2795	1
2	1941	2815	1
2	1958	2845	1
2	1973	2870	1
2	1980	2880	1
2	1994	2905	1
2	2011	2935	1
2	2016	2940	1
2	2025	2955	1
2	2032	2965	1
2	2039	2975	1
2	2044	2980	1
2	2048	2985	1
2	2053	2990	1
2	2057	2995	1
2	2067	3010	1
2	2074	3020	1
2	2081	3030	1
2	2085	3035	1
2	2092	3045	1
2	2102	3060	1
2	2109	3070	1
2	2113	3075	1
2	2118	3080	1
2	2130	3100	1
2	2134	3105	1
2	2144	3120	1
2	2151	3130	1
2	2155	3135	1
2	2160	3140	1
2	2167	3150	1
2	2171	3155	1
2	2176	3160	1
2	2180	3165	1
2	2187	3175	1
2	2194	3185	1
2	2201	3195	1
2	2211	3210	1
2	2220	3225	1
2	2227	3235	1
2	2239	3255	1
2	2254	3280	1
2	2258	3285	1
2	2263	3290	1
2	2267	3295	1
2	2272	3300	1
2	2279	3310	1
2	2283	3315	1
2	2288	3320	1
2	2300	3340	1
2	2312	3360	1
2	2326	3385	1
2	2331	3390	1
2	2338	3400	1
2	2342	3405	1
2	2349	3415	1
2	2354	3420	1
2	2358	3425	1
2	2368	3440	1
2	2372	3445	1
2	2377	3450	1
2	2381	3455	1
2	2386	3460	1
2	2390	3465	1
2	2400	3480	1
2	2404	3485	1
2	2411	3495	1
2	2418	3505	1
2	2433	3530	1
2	2437	3535	1
2	2442	3540	1
2	2446	3545	1
2	2453	3555	1
2	2460	3565	1
2	2470	3580	1
2	2477	3590	1
2	2481	3595	1
3	19	35	25
3	26	45	25
3	36	60	30
3	45	75	35
3	50	80	30
3	54	85	25
3	59	90	20
3	63	95	15
3	70	105	15
3	77	115	15
3	89	135	25
3	96	145	25
3	106	160	30
3	110	165	25
3	117	175	25
3	124	185	25
3	134	200	30
3	143	215	35
3	155	235	45
3	165	250	50
3	169	255	45
3	174	260	40
3	178	265	35
3	183	270	30
3	195	290	30
3	204	305	35
3	209	310	30
3	216	320	30
3	225	335	35
3	230	340	30
3	239	355	35
3	246	365	35
3	253	375	35
3	263	390	40
3	267	395	35
3	272	400	30
3	276	405	25
3	281	410	20
3	285	415	15
3	290	420	10
3	294	425	5
3	311	455	25
3	321	470	30
3	335	495	45
3	340	500	40
3	347	510	40
3	351	515	35
3	356	520	30
3	360	525	25
3	370	540	30
3	377	550	30
3	391	575	45
3	401	590	50
3	408	600	50
3	415	610	50
3	434	645	75
3	439	650	70
3	446	660	60
3	450	665	55
3	457	675	55
3	464	685	35
3	469	690	30
3	473	695	25
3	478	700	20
3	485	710	20
3	492	720	20
3	499	730	20
3	503	735	15
3	515	755	25
3	520	760	20
3	527	770	20
3	531	775	15
3	538	785	15
3	545	795	15
3	555	810	20
3	559	815	15
3	564	820	10
3	568	825	5
3	578	840	10
3	585	850	10
3	589	855	5
3	601	875	15
3	608	885	15
3	613	890	10
3	617	895	5
3	624	905	5
3	644	940	30
3	648	945	25
3	678	1000	70
3	682	1005	65
3	687	1010	60
3	694	1020	60
3	698	1025	55
3	703	1030	20
3	707	1035	15
3	712	1040	10
3	724	1060	20
3	731	1070	20
3	735	1075	15
3	750	1100	30
3	759	1115	35
3	764	1120	30
3	768	1125	25
3	773	1130	20
3	777	1135	15
3	784	1145	15
3	789	1150	10
3	806	1180	30
3	813	1190	30
3	817	1195	25
3	822	1200	20
3	826	1205	15
3	833	1215	15
3	843	1230	20
3	847	1235	15
3	857	1250	20
3	861	1255	15
3	866	1260	10
3	870	1265	5
3	880	1280	10
3	884	1285	5
3	891	1295	5
3	898	1305	5
3	908	1320	10
3	912	1325	5
3	927	1350	20
3	931	1355	15
3	936	1360	10
3	953	1390	30
3	957	1395	25
3	974	1425	45
3	979	1430	40
3	986	1440	40
3	993	1450	40
3	1000	1460	40
3	1007	1470	40
3	1011	1475	35
3	1016	1480	30
3	1025	1495	35
3	1030	1500	30
3	1034	1505	25
3	1039	1510	20
3	1046	1520	20
3	1053	1530	20
3	1057	1535	15
3	1067	1550	20
3	1074	1560	20
3	1078	1565	15
3	1083	1570	10
3	1090	1580	10
3	1094	1585	5
3	1104	1600	10
3	1111	1610	10
3	1115	1615	5
3	1127	1635	15
3	1132	1640	10
3	1144	1660	20
3	1148	1665	15
3	1153	1670	10
3	1157	1675	5
3	1164	1685	5
3	1171	1695	5
3	1178	1705	5
3	1188	1720	10
3	1192	1725	5
3	1202	1740	10
3	1211	1755	15
3	1216	1760	10
3	1220	1765	5
3	1227	1775	5
3	1234	1785	5
3	1246	1805	15
3	1253	1815	15
3	1263	1830	20
3	1267	1835	15
3	1272	1840	10
3	1276	1845	5
3	1291	1870	20
3	1295	1875	15
3	1300	1880	10
3	1309	1895	15
3	1316	1905	15
3	1326	1920	20
3	1330	1925	15
3	1335	1930	10
3	1339	1935	5
3	1346	1945	5
3	1353	1955	5
3	1360	1965	5
3	1370	1980	10
3	1382	2000	20
3	1394	2020	30
3	1401	2030	30
3	1413	2050	40
3	1417	2055	35
3	1427	2070	40
3	1431	2075	35
3	1436	2080	30
3	1440	2085	25
3	1445	2090	20
3	1454	2105	25
3	1464	2120	30
3	1468	2125	25
3	1473	2130	20
3	1480	2140	20
3	1487	2150	20
3	1494	2160	20
3	1501	2170	20
3	1505	2175	15
3	1510	2180	10
3	1517	2190	10
3	1524	2200	10
3	1528	2205	5
3	1538	2220	10
3	1542	2225	5
3	1554	2245	15
3	1561	2255	15
3	1573	2275	25
3	1580	2285	25
3	1587	2295	25
3	1592	2300	20
3	1596	2305	15
3	1601	2310	10
3	1605	2315	5
3	1620	2340	20
3	1629	2355	25
3	1634	2360	20
3	1638	2365	15
3	1645	2375	15
3	1652	2385	15
3	1664	2405	25
3	1669	2410	20
3	1681	2430	30
3	1685	2435	25
3	1692	2445	25
3	1717	2490	60
3	1724	2500	60
3	1728	2505	55
3	1733	2510	50
3	1740	2520	50
3	1747	2530	30
3	1751	2535	25
3	1758	2545	25
3	1763	2550	20
3	1767	2555	15
3	1777	2570	20
3	1786	2585	25
3	1793	2595	25
3	1803	2610	30
3	1817	2635	45
3	1824	2645	45
3	1831	2655	45
3	1841	2670	50
3	1845	2675	45
3	1857	2695	55
3	1862	2700	50
3	1874	2720	60
3	1878	2725	45
3	1885	2735	45
3	1890	2740	40
3	1899	2755	45
3	1904	2760	30
3	1908	2765	25
3	1915	2775	25
3	1925	2790	30
3	1929	2795	25
3	1941	2815	35
3	1958	2845	55
3	1973	2870	70
3	1980	2880	70
3	1994	2905	85
3	2011	2935	105
3	2016	2940	90
3	2025	2955	75
3	2032	2965	75
3	2039	2975	65
3	2044	2980	40
3	2048	2985	35
3	2053	2990	30
3	2057	2995	25
3	2067	3010	30
3	2074	3020	30
3	2081	3030	30
3	2085	3035	25
3	2092	3045	25
3	2102	3060	30
3	2109	3070	30
3	2113	3075	25
3	2118	3080	20
3	2130	3100	30
3	2134	3105	25
3	2144	3120	30
3	2151	3130	30
3	2155	3135	25
3	2160	3140	20
3	2167	3150	20
3	2171	3155	15
3	2176	3160	10
3	2180	3165	5
3	2187	3175	5
3	2194	3185	5
3	2201	3195	5
3	2211	3210	10
3	2220	3225	15
3	2227	3235	15
3	2239	3255	25
3	2254	3280	40
3	2258	3285	35
3	2263	3290	30
3	2267	3295	25
3	2272	3300	20
3	2279	3310	20
3	2283	3315	15
3	2288	3320	10
3	2300	3340	20
3	2312	3360	30
3	2326	3385	45
3	2331	3390	40
3	2338	3400	40
3	2342	3405	35
3	2349	3415	35
3	2354	3420	30
3	2358	3425	25
3	2368	3440	30
3	2372	3445	25
3	2377	3450	20
3	2381	3455	15
3	2386	3460	10
3	2390	3465	5
3	2400	3480	10
3	2404	3485	5
3	2411	3495	5
3	2418	3505	5
3	2433	3530	20
3	2437	3535	15
3	2442	3540	10
3	2446	3545	5
3	2453	3555	5
3	2460	3565	5
3	2470	3580	10
3	2477	3590	10
3	2481	3595	5
4	19	35	1
4	26	45	1
4	36	60	1
4	45	75	1
4	50	80	1
4	54	85	1
4	59	90	1
4	63	95	0
4	70	105	0
4	77	115	0
4	89	135	1
4	96	145	1
4	106	160	1
4	110	165	1
4	117	175	1
4	124	185	1
4	134	200	1
4	143	215	1
4	155	235	1
4	165	250	1
4	169	255	1
4	174	260	1
4	178	265	1
4	183	270	1
4	195	290	1
4	204	305	1
4	209	310	1
4	216	320	1
4	225	335	1
4	230	340	1
4	239	355	1
4	246	365	1
4	253	375	1
4	263	390	1
4	267	395	1
4	272	400	1
4	276	405	1
4	281	410	1
4	285	415	0
4	290	420	0
4	294	425	0
4	311	455	1
4	321	470	1
4	335	495	1
4	340	500	1
4	347	510	1
4	351	515	1
4	356	520	1
4	360	525	1
4	370	540	1
4	377	550	1
4	391	575	1
4	401	590	1
4	408	600	1
4	415	610	1
4	434	645	1
4	439	650	1
4	446	660	1
4	450	665	1
4	457	675	1
4	464	685	1
4	469	690	1
4	473	695	1
4	478	700	1
4	485	710	1
4	492	720	1
4	499	730	1
4	503	735	0
4	515	755	1
4	520	760	1
4	527	770	1
4	531	775	0
4	538	785	0
4	545	795	0
4	555	810	1
4	559	815	0
4	564	820	0
4	568	825	0
4	578	840	0
4	585	850	0
4	589	855	0
4	601	875	0
4	608	885	0
4	613	890	0
4	617	895	0
4	624	905	0
4	644	940	1
4	648	945	1
4	678	1000	1
4	682	1005	1
4	687	1010	1
4	694	1020	1
4	698	1025	1
4	703	1030	1
4	707	1035	0
4	712	1040	0
4	724	1060	1
4	731	1070	1
4	735	1075	0
4	750	1100	1
4	759	1115	1
4	764	1120	1
4	768	1125	1
4	773	1130	1
4	777	1135	0
4	784	1145	0
4	789	1150	0
4	806	1180	1
4	813	1190	1
4	817	1195	1
4	822	1200	1
4	826	1205	0
4	833	1215	0
4	843	1230	1
4	847	1235	0
4	857	1250	1
4	861	1255	0
4	866	1260	0
4	870	1265	0
4	880	1280	0
4	884	1285	0
4	891	1295	0
4	898	1305	0
4	908	1320	0
4	912	1325	0
4	927	1350	1
4	931	1355	0
4	936	1360	0
4	953	1390	1
4	957	1395	1
4	974	1425	1
4	979	1430	1
4	986	1440	1
4	993	1450	1
4	1000	1460	1
4	1007	1470	1
4	1011	1475	1
4	1016	1480	1
4	1025	1495	1
4	1030	1500	1
4	1034	1505	1
4	1039	1510	1
4	1046	1520	1
4	1053	1530	1
4	1057	1535	0
4	1067	1550	1
4	1074	1560	1
4	1078	1565	0
4	1083	1570	0
4	1090	1580	0
4	1094	1585	0
4	1104	1600	0
4	1111	1610	0
4	1115	1615	0
4	1127	1635	0
4	1132	1640	0
4	1144	1660	1
4	1148	1665	0
4	1153	1670	0
4	1157	1675	0
4	1164	1685	0
4	1171	1695	0
4	1178	1705	0
4	1188	1720	0
4	1192	1725	0
4	1202	1740	0
4	1211	1755	0
4	1216	1760	0
4	1220	1765	0
4	1227	1775	0
4	1234	1785	0
4	1246	1805	0
4	1253	1815	0
4	1263	1830	1
4	1267	1835	0
4	1272	1840	0
4	1276	1845	0
4	1291	1870	1
4	1295	1875	0
4	1300	1880	0
4	1309	1895	0
4	1316	1905	0
4	1326	1920	1
4	1330	1925	0
4	1335	1930	0
4	1339	1935	0
4	1346	1945	0
4	1353	1955	0
4	1360	1965	0
4	1370	1980	0
4	1382	2000	1
4	1394	2020	1
4	1401	2030	1
4	1413	2050	1
4	1417	2055	1
4	1427	2070	1
4	1431	2075	1
4	1436	2080	1
4	1440	2085	1
4	1445	2090	1
4	1454	2105	1
4	1464	2120	1
4	1468	2125	1
4	1473	2130	1
4	1480	2140	1
4	1487	2150	1
4	1494	2160	1
4	1501	2170	1
4	1505	2175	0
4	1510	2180	0
4	1517	2190	0
4	1524	2200	0
4	1528	2205	0
4	1538	2220	0
4	1542	2225	0
4	1554	2245	0
4	1561	2255	0
4	1573	2275	1
4	1580	2285	1
4	1587	2295	1
4	1592	2300	1
4	1596	2305	0
4	1601	2310	0
4	1605	2315	0
4	1620	2340	1
4	1629	2355	1
4	1634	2360	1
4	1638	2365	0
4	1645	2375	0
4	1652	2385	0
4	1664	2405	1
4	1669	2410	1
4	1681	2430	1
4	1685	2435	1
4	1692	2445	1
4	1717	2490	1
4	1724	2500	1
4	1728	2505	1
4	1733	2510	1
4	1740	2520	1
4	1747	2530	1
4	1751	2535	1
4	1758	2545	1
4	1763	2550	1
4	1767	2555	0
4	1777	2570	1
4	1786	2585	1
4	1793	2595	1
4	1803	2610	1
4	1817	2635	1
4	1824	2645	1
4	1831	2655	1
4	1841	2670	1
4	1845	2675	1
4	1857	2695	1
4	1862	2700	1
4	1874	2720	1
4	1878	2725	1
4	1885	2735	1
4	1890	2740	1
4	1899	2755	1
4	1904	2760	1
4	1908	2765	1
4	1915	2775	1
4	1925	2790	1
4	1929	2795	1
4	1941	2815	1
4	1958	2845	1
4	1973	2870	1
4	1980	2880	1
4	1994	2905	1
4	2011	2935	1
4	2016	2940	1
4	2025	2955	1
4	2032	2965	1
4	2039	2975	1
4	2044	2980	1
4	2048	2985	1
4	2053	2990	1
4	2057	2995	1
4	2067	3010	1
4	2074	3020	1
4	2081	3030	1
4	2085	3035	1
4	2092	3045	1
4	2102	3060	1
4	2109	3070	1
4	2113	3075	1
4	2118	3080	1
4	2130	3100	1
4	2134	3105	1
4	2144	3120	1
4	2151	3130	1
4	2155	3135	1
4	2160	3140	1
4	2167	3150	1
4	2171	3155	0
4	2176	3160	0
4	2180	3165	0
4	2187	3175	0
4	2194	3185	0
4	2201	3195	0
4	2211	3210	0
4	2220	3225	0
4	2227	3235	0
4	2239	3255	1
4	2254	3280	1
4	2258	3285	1
4	2263	3290	1
4	2267	3295	1
4	2272	3300	1
4	2279	3310	1
4	2283	3315	0
4	2288	3320	0
4	2300	3340	1
4	2312	3360	1
4	2326	3385	1
4	2331	3390	1
4	2338	3400	1
4	2342	3405	1
4	2349	3415	1
4	2354	3420	1
4	2358	3425	1
4	2368	3440	1
4	2372	3445	1
4	2377	3450	1
4	2381	3455	0
4	2386	3460	0
4	2390	3465	0
4	2400	3480	0
4	2404	3485	0
4	2411	3495	0
4	2418	3505	0
4	2433	3530	1
4	2437	3535	0
4	2442	3540	0
4	2446	3545	0
4	2453	3555	0
4	2460	3565	0
4	2470	3580	0
4	2477	3590	0
4	2481	3595	0
5	162	250	1
5	398	590	1
5	423	630	1
5	428	640	1
5	664	980	1
5	669	990	1
5	675	1000	1
5	1708	2480	1
5	1714	2490	1
5	1838	2670	1
5	1871	2720	1
5	1952	2840	1
5	1964	2860	1
5	1970	2870	1
5	1988	2900	1
5	2000	2920	1
5	2005	2930	1

