version 2
run Verification_DegeneracyTest_WithTx2-0-20210118-17:31:45-7533
attr configname Verification_DegeneracyTest_WithTx2
attr datetime 20210118-17:31:45
attr experiment Verification_DegeneracyTest_WithTx2
attr inifile omnetpp.ini
attr iterationvars ""
attr iterationvarsf ""
attr measurement ""
attr network slottedNetwork
attr processid 7533
attr repetition 0
attr replication #0
attr resultdir results
attr runnumber 0
attr seedset 0
param **.numTransmitters 1
param **.numChannels 0
param **.sendProbability 0
param **.expMean 0s
param **.timeSlotSize 0s
param **.thresh 0s
param **.deterministicInterarrivalTime false
param **.numTransmitters 1
param **.numChannels 1
param **.sendProbability 1
param **.expMean 5s
param **.timeSlotSize 5s
param **.thresh 20s
param **.deterministicInterarrivalTime false

vector 0 slottedNetwork.transmitters[0] numPacketCreated:vector ETV
attr source numPacketCreatedSignal
vector 1 slottedNetwork.ch throughput:vector ETV
attr source throughputSignal
0	1	0	1
0	3	0	1
0	6	0	1
1	2	0	0
1	5	0	0
1	8	0	0
1	11	0	0
1	14	0	0
1	17	0	0
1	20	0	0
1	23	0	0
1	26	0	0
1	29	0	0
1	32	0	0
1	35	0	0
1	38	0	0
1	41	0	0
1	44	0	0
1	47	0	0
1	50	0	0
1	53	0	0
1	56	0	0
1	59	0	0
1	62	0	0
1	65	0	0
1	68	0	0
1	71	0	0
1	74	0	0
1	77	0	0
1	80	0	0
1	83	0	0
1	86	0	0
1	89	0	0
1	92	0	0
1	95	0	0
1	98	0	0
1	101	0	0
1	104	0	0
1	107	0	0
1	110	0	0
1	113	0	0
1	116	0	0
1	119	0	0
1	122	0	0
1	125	0	0
1	128	0	0
1	131	0	0
1	134	0	0
1	137	0	0
1	140	0	0
1	143	0	0
1	146	0	0
1	149	0	0
1	152	0	0
1	155	0	0
1	158	0	0
1	161	0	0
1	164	0	0
1	167	0	0
1	170	0	0
1	173	0	0
1	176	0	0
1	179	0	0
1	182	0	0
1	185	0	0
1	188	0	0
1	191	0	0
1	194	0	0
1	197	0	0
1	200	0	0
1	203	0	0
1	206	0	0
1	209	0	0
1	212	0	0
1	215	0	0
1	218	0	0
1	221	0	0
1	224	0	0
1	227	0	0
1	230	0	0
1	233	0	0
1	236	0	0
1	239	0	0
1	242	0	0
1	245	0	0
1	248	0	0
1	251	0	0
1	254	0	0
1	257	0	0
1	260	0	0
1	263	0	0
1	266	0	0
1	269	0	0
1	272	0	0
1	275	0	0
1	278	0	0
1	281	0	0
1	284	0	0
1	287	0	0
1	290	0	0
1	293	0	0
1	296	0	0
1	299	0	0
1	302	0	0
1	305	0	0
1	308	0	0
1	311	0	0
1	314	0	0
1	317	0	0
1	320	0	0
1	323	0	0
1	326	0	0
1	329	0	0
1	332	0	0
1	335	0	0
1	338	0	0
1	341	0	0
1	344	0	0
1	347	0	0
1	350	0	0
1	353	0	0
1	356	0	0
1	359	0	0
1	362	0	0
1	365	0	0
1	368	0	0
1	371	0	0
1	374	0	0
1	377	0	0
1	380	0	0
1	383	0	0
1	386	0	0
1	389	0	0
1	392	0	0
1	395	0	0
1	398	0	0
1	401	0	0
1	404	0	0
1	407	0	0
1	410	0	0
1	413	0	0
1	416	0	0
1	419	0	0
1	422	0	0
1	425	0	0
1	428	0	0
1	431	0	0
1	434	0	0
1	437	0	0
1	440	0	0
1	443	0	0
1	446	0	0
1	449	0	0
1	452	0	0
1	455	0	0
1	458	0	0
1	461	0	0
1	464	0	0
1	467	0	0
1	470	0	0
1	473	0	0
1	476	0	0
1	479	0	0
1	482	0	0
1	485	0	0
1	488	0	0
1	491	0	0
1	494	0	0
1	497	0	0
1	500	0	0
1	503	0	0
1	506	0	0
1	509	0	0
1	512	0	0
1	515	0	0
1	518	0	0
1	521	0	0
1	524	0	0
1	527	0	0
1	530	0	0
1	533	0	0
1	536	0	0
1	539	0	0
1	542	0	0
1	545	0	0
1	548	0	0
1	551	0	0
1	554	0	0
1	557	0	0
1	560	0	0
1	563	0	0
1	566	0	0
1	569	0	0
1	572	0	0
1	575	0	0
1	578	0	0
1	581	0	0
1	584	0	0
1	587	0	0
1	590	0	0
1	593	0	0
1	596	0	0
1	599	0	0
1	602	0	0
1	605	0	0
1	608	0	0
1	611	0	0
1	614	0	0
1	617	0	0
1	620	0	0
1	623	0	0
1	626	0	0
1	629	0	0
1	632	0	0
1	635	0	0
1	638	0	0
1	641	0	0
1	644	0	0
1	647	0	0
1	650	0	0
1	653	0	0
1	656	0	0
1	659	0	0
1	662	0	0
1	665	0	0
1	668	0	0
1	671	0	0
1	674	0	0
1	677	0	0
1	680	0	0
1	683	0	0
1	686	0	0
1	689	0	0
1	692	0	0
1	695	0	0
1	698	0	0
1	701	0	0
1	704	0	0
1	707	0	0
1	710	0	0
1	713	0	0
1	716	0	0
1	719	0	0
1	722	0	0
1	725	0	0
1	728	0	0
1	731	0	0
1	734	0	0
1	737	0	0
1	740	0	0
1	743	0	0
1	746	0	0
1	749	0	0
1	752	0	0
1	755	0	0
1	758	0	0
1	761	0	0
1	764	0	0
1	767	0	0
1	770	0	0
1	773	0	0
1	776	0	0
1	779	0	0
1	782	0	0
1	785	0	0
1	788	0	0
1	791	0	0
1	794	0	0
1	797	0	0
1	800	0	0
1	803	0	0
1	806	0	0
1	809	0	0
1	812	0	0
1	815	0	0
1	818	0	0
1	821	0	0
1	824	0	0
1	827	0	0
1	830	0	0
1	833	0	0
1	836	0	0
1	839	0	0
1	842	0	0
1	845	0	0
1	848	0	0
1	851	0	0
1	854	0	0
1	857	0	0
1	860	0	0
1	863	0	0
1	866	0	0
1	869	0	0
1	872	0	0
1	875	0	0
1	878	0	0
1	881	0	0
1	884	0	0
1	887	0	0
1	890	0	0
1	893	0	0
1	896	0	0
1	899	0	0
1	902	0	0
1	905	0	0
1	908	0	0
1	911	0	0
1	914	0	0
1	917	0	0
1	920	0	0
1	923	0	0
1	926	0	0
1	929	0	0
1	932	0	0
1	935	0	0
1	938	0	0
1	941	0	0
1	944	0	0
1	947	0	0
1	950	0	0
1	953	0	0
1	956	0	0
1	959	0	0
1	962	0	0
1	965	0	0
1	968	0	0
1	971	0	0
1	974	0	0
1	977	0	0
1	980	0	0
1	983	0	0
1	986	0	0
1	989	0	0
1	992	0	0
1	995	0	0
1	998	0	0
1	1001	0	0
1	1004	0	0
1	1007	0	0
1	1010	0	0
1	1013	0	0
1	1016	0	0
1	1019	0	0
1	1022	0	0
1	1025	0	0
1	1028	0	0
1	1031	0	0
1	1034	0	0
1	1037	0	0
1	1040	0	0
1	1043	0	0
1	1046	0	0
1	1049	0	0
1	1052	0	0
1	1055	0	0
1	1058	0	0
1	1061	0	0
1	1064	0	0
1	1067	0	0
1	1070	0	0
1	1073	0	0
1	1076	0	0
1	1079	0	0
1	1082	0	0
1	1085	0	0
1	1088	0	0
1	1091	0	0
1	1094	0	0
1	1097	0	0
1	1100	0	0
1	1103	0	0
1	1106	0	0
1	1109	0	0
1	1112	0	0
1	1115	0	0
1	1118	0	0
1	1121	0	0
1	1124	0	0
1	1127	0	0
1	1130	0	0
1	1133	0	0
1	1136	0	0
1	1139	0	0
1	1142	0	0
1	1145	0	0
1	1148	0	0
1	1151	0	0
1	1154	0	0
1	1157	0	0
1	1160	0	0
1	1163	0	0
1	1166	0	0
1	1169	0	0
1	1172	0	0
1	1175	0	0
1	1178	0	0
1	1181	0	0
1	1184	0	0
1	1187	0	0
1	1190	0	0
1	1193	0	0
1	1196	0	0
1	1199	0	0
1	1202	0	0
1	1205	0	0
1	1208	0	0
1	1211	0	0
1	1214	0	0
1	1217	0	0
1	1220	0	0
1	1223	0	0
1	1226	0	0
1	1229	0	0
1	1232	0	0
1	1235	0	0
1	1238	0	0
1	1241	0	0
1	1244	0	0
1	1247	0	0
1	1250	0	0
1	1253	0	0
1	1256	0	0
1	1259	0	0
1	1262	0	0
1	1265	0	0
1	1268	0	0
1	1271	0	0
1	1274	0	0
1	1277	0	0
1	1280	0	0
1	1283	0	0
1	1286	0	0
1	1289	0	0
1	1292	0	0
1	1295	0	0
1	1298	0	0
1	1301	0	0
1	1304	0	0
1	1307	0	0
1	1310	0	0
1	1313	0	0
1	1316	0	0
1	1319	0	0
1	1322	0	0
1	1325	0	0
1	1328	0	0
1	1331	0	0
1	1334	0	0
1	1337	0	0
1	1340	0	0
1	1343	0	0
1	1346	0	0
1	1349	0	0
1	1352	0	0
1	1355	0	0
1	1358	0	0
1	1361	0	0
1	1364	0	0
1	1367	0	0
1	1370	0	0
1	1373	0	0
1	1376	0	0
1	1379	0	0
1	1382	0	0
1	1385	0	0
1	1388	0	0
1	1391	0	0
1	1394	0	0
1	1397	0	0
1	1400	0	0
1	1403	0	0
1	1406	0	0
1	1409	0	0
1	1412	0	0
1	1415	0	0
1	1418	0	0
1	1421	0	0
1	1424	0	0
1	1427	0	0
1	1430	0	0
1	1433	0	0
1	1436	0	0
1	1439	0	0
1	1442	0	0
1	1445	0	0
1	1448	0	0
1	1451	0	0
1	1454	0	0
1	1457	0	0
1	1460	0	0
1	1463	0	0
1	1466	0	0
1	1469	0	0
1	1472	0	0
1	1475	0	0
1	1478	0	0
1	1481	0	0
1	1484	0	0
1	1487	0	0
1	1490	0	0
1	1493	0	0
1	1496	0	0
1	1499	0	0
1	1502	0	0
1	1505	0	0
1	1508	0	0
1	1511	0	0
1	1514	0	0
1	1517	0	0
1	1520	0	0
1	1523	0	0
1	1526	0	0
1	1529	0	0
1	1532	0	0
1	1535	0	0
1	1538	0	0
1	1541	0	0
1	1544	0	0
1	1547	0	0
1	1550	0	0
1	1553	0	0
1	1556	0	0
1	1559	0	0
1	1562	0	0
1	1565	0	0
1	1568	0	0
1	1571	0	0
1	1574	0	0
1	1577	0	0
1	1580	0	0
1	1583	0	0
1	1586	0	0
1	1589	0	0
1	1592	0	0
1	1595	0	0
1	1598	0	0
1	1601	0	0
1	1604	0	0
1	1607	0	0
1	1610	0	0
1	1613	0	0
1	1616	0	0
1	1619	0	0
1	1622	0	0
1	1625	0	0
1	1628	0	0
1	1631	0	0
1	1634	0	0
1	1637	0	0
1	1640	0	0
1	1643	0	0
1	1646	0	0
1	1649	0	0
1	1652	0	0
1	1655	0	0
1	1658	0	0
1	1661	0	0
1	1664	0	0
1	1667	0	0
1	1670	0	0
1	1673	0	0
1	1676	0	0
1	1679	0	0
1	1682	0	0
1	1685	0	0
1	1688	0	0
1	1691	0	0
1	1694	0	0
1	1697	0	0
1	1700	0	0
1	1703	0	0
1	1706	0	0
1	1709	0	0
1	1712	0	0
1	1715	0	0
1	1718	0	0
1	1721	0	0
1	1724	0	0
1	1727	0	0
1	1730	0	0
1	1733	0	0
1	1736	0	0
1	1739	0	0
1	1742	0	0
1	1745	0	0
1	1748	0	0
1	1751	0	0
1	1754	0	0
1	1757	0	0
1	1760	0	0
1	1763	0	0
1	1766	0	0
1	1769	0	0
1	1772	0	0
1	1775	0	0
1	1778	0	0
1	1781	0	0
1	1784	0	0
1	1787	0	0
1	1790	0	0
1	1793	0	0
1	1796	0	0
1	1799	0	0
1	1802	0	0
1	1805	0	0
1	1808	0	0
1	1811	0	0
1	1814	0	0
1	1817	0	0
1	1820	0	0
1	1823	0	0
1	1826	0	0
1	1829	0	0
1	1832	0	0
1	1835	0	0
1	1838	0	0
1	1841	0	0
1	1844	0	0
1	1847	0	0
1	1850	0	0
1	1853	0	0
1	1856	0	0
1	1859	0	0
1	1862	0	0
1	1865	0	0
1	1868	0	0
1	1871	0	0
1	1874	0	0
1	1877	0	0
1	1880	0	0
1	1883	0	0
1	1886	0	0
1	1889	0	0
1	1892	0	0
1	1895	0	0
1	1898	0	0
1	1901	0	0
1	1904	0	0
1	1907	0	0
1	1910	0	0
1	1913	0	0
1	1916	0	0
1	1919	0	0
1	1922	0	0
1	1925	0	0
1	1928	0	0
1	1931	0	0
1	1934	0	0
1	1937	0	0
1	1940	0	0
1	1943	0	0
1	1946	0	0
1	1949	0	0
1	1952	0	0
1	1955	0	0
1	1958	0	0
1	1961	0	0
1	1964	0	0
1	1967	0	0
1	1970	0	0
1	1973	0	0
1	1976	0	0
1	1979	0	0
1	1982	0	0
1	1985	0	0
1	1988	0	0
1	1991	0	0
1	1994	0	0
1	1997	0	0
1	2000	0	0
1	2003	0	0
1	2006	0	0
1	2009	0	0
1	2012	0	0
1	2015	0	0
1	2018	0	0
1	2021	0	0
1	2024	0	0
1	2027	0	0
1	2030	0	0
1	2033	0	0
1	2036	0	0
1	2039	0	0
1	2042	0	0
1	2045	0	0
1	2048	0	0
1	2051	0	0
1	2054	0	0
1	2057	0	0
1	2060	0	0
1	2063	0	0
1	2066	0	0
1	2069	0	0
1	2072	0	0
1	2075	0	0
1	2078	0	0
1	2081	0	0
1	2084	0	0
1	2087	0	0
1	2090	0	0
1	2093	0	0
1	2096	0	0
1	2099	0	0
1	2102	0	0
1	2105	0	0
1	2108	0	0
1	2111	0	0
1	2114	0	0
1	2117	0	0
1	2120	0	0
1	2123	0	0
1	2126	0	0
1	2129	0	0
1	2132	0	0
1	2135	0	0
1	2138	0	0
1	2141	0	0
1	2144	0	0
1	2147	0	0
1	2150	0	0
1	2153	0	0
1	2156	0	0
1	2159	0	0
1	2162	0	0
1	2165	0	0
1	2168	0	0
1	2171	0	0
1	2174	0	0
1	2177	0	0
1	2180	0	0
1	2183	0	0
1	2186	0	0
1	2189	0	0
1	2192	0	0
1	2195	0	0
1	2198	0	0
1	2201	0	0
1	2204	0	0
1	2207	0	0
1	2210	0	0
1	2213	0	0
1	2216	0	0
1	2219	0	0
1	2222	0	0
1	2225	0	0
1	2228	0	0
1	2231	0	0
1	2234	0	0
1	2237	0	0
1	2240	0	0
1	2243	0	0
1	2246	0	0
1	2249	0	0
1	2252	0	0
1	2255	0	0
1	2258	0	0
1	2261	0	0
1	2264	0	0
1	2267	0	0
1	2270	0	0
1	2273	0	0
1	2276	0	0
1	2279	0	0
1	2282	0	0
1	2285	0	0
1	2288	0	0
1	2291	0	0
1	2294	0	0
1	2297	0	0
1	2300	0	0
1	2303	0	0
1	2306	0	0
1	2309	0	0
1	2312	0	0
1	2315	0	0
1	2318	0	0
1	2321	0	0
1	2324	0	0
1	2327	0	0
1	2330	0	0
1	2333	0	0
1	2336	0	0
1	2339	0	0
1	2342	0	0
1	2345	0	0
1	2348	0	0
1	2351	0	0
1	2354	0	0
1	2357	0	0
1	2360	0	0
1	2363	0	0
1	2366	0	0
1	2369	0	0
1	2372	0	0
1	2375	0	0
1	2378	0	0
1	2381	0	0
1	2384	0	0
1	2387	0	0
1	2390	0	0
1	2393	0	0
1	2396	0	0
1	2399	0	0
1	2402	0	0
1	2405	0	0
1	2408	0	0
1	2411	0	0
1	2414	0	0
1	2417	0	0
1	2420	0	0
1	2423	0	0
1	2426	0	0
1	2429	0	0
1	2432	0	0
1	2435	0	0
1	2438	0	0
1	2441	0	0
1	2444	0	0
1	2447	0	0
1	2450	0	0
1	2453	0	0
1	2456	0	0
1	2459	0	0
1	2462	0	0
1	2465	0	0
1	2468	0	0
1	2471	0	0
1	2474	0	0
1	2477	0	0
1	2480	0	0
1	2483	0	0
1	2486	0	0
1	2489	0	0
1	2492	0	0
1	2495	0	0
1	2498	0	0
1	2501	0	0
1	2504	0	0
1	2507	0	0
1	2510	0	0
1	2513	0	0
1	2516	0	0
1	2519	0	0
1	2522	0	0
1	2525	0	0
1	2528	0	0
1	2531	0	0
1	2534	0	0
1	2537	0	0
1	2540	0	0
1	2543	0	0
1	2546	0	0
1	2549	0	0
1	2552	0	0
1	2555	0	0
1	2558	0	0
1	2561	0	0
1	2564	0	0
1	2567	0	0
1	2570	0	0
1	2573	0	0
1	2576	0	0
1	2579	0	0
1	2582	0	0
1	2585	0	0
1	2588	0	0
1	2591	0	0
1	2594	0	0
1	2597	0	0
1	2600	0	0
1	2603	0	0
1	2606	0	0
1	2609	0	0
1	2612	0	0
1	2615	0	0
1	2618	0	0
1	2621	0	0
1	2624	0	0
1	2627	0	0
1	2630	0	0
1	2633	0	0
1	2636	0	0
1	2639	0	0
1	2642	0	0
1	2645	0	0
1	2648	0	0
1	2651	0	0
1	2654	0	0
1	2657	0	0
1	2660	0	0
1	2663	0	0
1	2666	0	0
1	2669	0	0
1	2672	0	0
1	2675	0	0
1	2678	0	0
1	2681	0	0
1	2684	0	0
1	2687	0	0
1	2690	0	0
1	2693	0	0
1	2696	0	0
1	2699	0	0
1	2702	0	0
1	2705	0	0
1	2708	0	0
1	2711	0	0
1	2714	0	0
1	2717	0	0
1	2720	0	0
1	2723	0	0
1	2726	0	0
1	2729	0	0
1	2732	0	0
1	2735	0	0
1	2738	0	0
1	2741	0	0
1	2744	0	0
1	2747	0	0
1	2750	0	0
1	2753	0	0
1	2756	0	0
1	2759	0	0
1	2762	0	0
1	2765	0	0
1	2768	0	0
1	2771	0	0
1	2774	0	0
1	2777	0	0
1	2780	0	0
1	2783	0	0
1	2786	0	0
1	2789	0	0
1	2792	0	0
1	2795	0	0
1	2798	0	0
1	2801	0	0
1	2804	0	0
1	2807	0	0
1	2810	0	0
1	2813	0	0
1	2816	0	0
1	2819	0	0
1	2822	0	0
1	2825	0	0
1	2828	0	0
1	2831	0	0
1	2834	0	0
1	2837	0	0
1	2840	0	0
1	2843	0	0
1	2846	0	0
1	2849	0	0
1	2852	0	0
1	2855	0	0
1	2858	0	0
1	2861	0	0
1	2864	0	0
1	2867	0	0
1	2870	0	0
1	2873	0	0
1	2876	0	0
1	2879	0	0
1	2882	0	0
1	2885	0	0
1	2888	0	0
1	2891	0	0
1	2894	0	0
1	2897	0	0
1	2900	0	0
1	2903	0	0
1	2906	0	0
1	2909	0	0
1	2912	0	0
1	2915	0	0
1	2918	0	0
1	2921	0	0
1	2924	0	0
1	2927	0	0
1	2930	0	0
1	2933	0	0
1	2936	0	0
1	2939	0	0
1	2942	0	0
1	2945	0	0
1	2948	0	0
1	2951	0	0
1	2954	0	0
1	2957	0	0
1	2960	0	0
1	2963	0	0
1	2966	0	0
1	2969	0	0
1	2972	0	0
1	2975	0	0
1	2978	0	0
1	2981	0	0
1	2984	0	0
1	2987	0	0
1	2990	0	0
1	2993	0	0
1	2996	0	0
1	2999	0	0
1	3002	0	0
1	3005	0	0
1	3008	0	0
1	3011	0	0
1	3014	0	0
1	3017	0	0
1	3020	0	0
1	3023	0	0
1	3026	0	0
1	3029	0	0
1	3032	0	0
1	3035	0	0
1	3038	0	0
1	3041	0	0
1	3044	0	0
1	3047	0	0
1	3050	0	0
1	3053	0	0
1	3056	0	0
1	3059	0	0
1	3062	0	0
1	3065	0	0
1	3068	0	0
1	3071	0	0
1	3074	0	0
1	3077	0	0
1	3080	0	0
1	3083	0	0
1	3086	0	0
1	3089	0	0
1	3092	0	0
1	3095	0	0
1	3098	0	0
1	3101	0	0
1	3104	0	0
1	3107	0	0
1	3110	0	0
1	3113	0	0
1	3116	0	0
1	3119	0	0
1	3122	0	0
1	3125	0	0
1	3128	0	0
1	3131	0	0
1	3134	0	0
1	3137	0	0
1	3140	0	0
1	3143	0	0
1	3146	0	0
1	3149	0	0
1	3152	0	0
1	3155	0	0
1	3158	0	0
1	3161	0	0
1	3164	0	0
1	3167	0	0
1	3170	0	0
1	3173	0	0
1	3176	0	0
1	3179	0	0
1	3182	0	0
1	3185	0	0
1	3188	0	0
1	3191	0	0
1	3194	0	0
1	3197	0	0
1	3200	0	0
1	3203	0	0
1	3206	0	0
1	3209	0	0
1	3212	0	0
1	3215	0	0
1	3218	0	0
1	3221	0	0
1	3224	0	0
1	3227	0	0
1	3230	0	0
1	3233	0	0
1	3236	0	0
1	3239	0	0
1	3242	0	0
1	3245	0	0
1	3248	0	0
1	3251	0	0
1	3254	0	0
1	3257	0	0
1	3260	0	0
1	3263	0	0
1	3266	0	0
1	3269	0	0
1	3272	0	0
1	3275	0	0
1	3278	0	0
1	3281	0	0
1	3284	0	0
1	3287	0	0
1	3290	0	0
1	3293	0	0
1	3296	0	0
1	3299	0	0
1	3302	0	0
1	3305	0	0
1	3308	0	0
1	3311	0	0
1	3314	0	0
1	3317	0	0
1	3320	0	0
1	3323	0	0
1	3326	0	0
1	3329	0	0
1	3332	0	0
1	3335	0	0
1	3338	0	0
1	3341	0	0
1	3344	0	0
1	3347	0	0
1	3350	0	0
1	3353	0	0
1	3356	0	0
1	3359	0	0
1	3362	0	0
1	3365	0	0
1	3368	0	0
1	3371	0	0
1	3374	0	0
1	3377	0	0
1	3380	0	0
1	3383	0	0
1	3386	0	0
1	3389	0	0
1	3392	0	0
1	3395	0	0
1	3398	0	0
1	3401	0	0
1	3404	0	0
1	3407	0	0
1	3410	0	0
1	3413	0	0
1	3416	0	0
1	3419	0	0
1	3422	0	0
1	3425	0	0
1	3428	0	0
1	3431	0	0
1	3434	0	0
1	3437	0	0
1	3440	0	0
1	3443	0	0
1	3446	0	0
1	3449	0	0
1	3452	0	0
1	3455	0	0
1	3458	0	0
1	3461	0	0
1	3464	0	0
1	3467	0	0
1	3470	0	0
1	3473	0	0
1	3476	0	0
1	3479	0	0
1	3482	0	0
1	3485	0	0
1	3488	0	0
1	3491	0	0
1	3494	0	0
1	3497	0	0
1	3500	0	0
1	3503	0	0
1	3506	0	0
1	3509	0	0
1	3512	0	0
1	3515	0	0
1	3518	0	0
1	3521	0	0
1	3524	0	0
1	3527	0	0
1	3530	0	0
1	3533	0	0
1	3536	0	0
1	3539	0	0
1	3542	0	0
1	3545	0	0
1	3548	0	0
1	3551	0	0
1	3554	0	0
1	3557	0	0
1	3560	0	0
1	3563	0	0
1	3566	0	0
1	3569	0	0
1	3572	0	0
1	3575	0	0
1	3578	0	0
1	3581	0	0
1	3584	0	0
1	3587	0	0
1	3590	0	0
1	3593	0	0
1	3596	0	0
1	3599	0	0
1	3602	0	0
1	3605	0	0
1	3608	0	0
1	3611	0	0
1	3614	0	0
1	3617	0	0
1	3620	0	0
1	3623	0	0
1	3626	0	0
1	3629	0	0
1	3632	0	0
1	3635	0	0
1	3638	0	0
1	3641	0	0
1	3644	0	0
1	3647	0	0
1	3650	0	0
1	3653	0	0
1	3656	0	0
1	3659	0	0
1	3662	0	0
1	3665	0	0
1	3668	0	0
1	3671	0	0
1	3674	0	0
1	3677	0	0
1	3680	0	0
1	3683	0	0
1	3686	0	0
1	3689	0	0
1	3692	0	0
1	3695	0	0
1	3698	0	0
1	3701	0	0
1	3704	0	0
1	3707	0	0
1	3710	0	0
1	3713	0	0
1	3716	0	0
1	3719	0	0
1	3722	0	0
1	3725	0	0
1	3728	0	0
1	3731	0	0
1	3734	0	0
1	3737	0	0
1	3740	0	0
1	3743	0	0
1	3746	0	0
1	3749	0	0
1	3752	0	0
1	3755	0	0
1	3758	0	0
1	3761	0	0
1	3764	0	0
1	3767	0	0
1	3770	0	0
1	3773	0	0
1	3776	0	0
1	3779	0	0
1	3782	0	0
1	3785	0	0
1	3788	0	0
1	3791	0	0
1	3794	0	0
1	3797	0	0
1	3800	0	0
1	3803	0	0
1	3806	0	0
1	3809	0	0
1	3812	0	0
1	3815	0	0
1	3818	0	0
1	3821	0	0
1	3824	0	0
1	3827	0	0
1	3830	0	0
1	3833	0	0
1	3836	0	0
1	3839	0	0
1	3842	0	0
1	3845	0	0
1	3848	0	0
1	3851	0	0
1	3854	0	0
1	3857	0	0
1	3860	0	0
1	3863	0	0
1	3866	0	0
1	3869	0	0
1	3872	0	0
1	3875	0	0
1	3878	0	0
1	3881	0	0
1	3884	0	0
1	3887	0	0
1	3890	0	0
1	3893	0	0
1	3896	0	0
1	3899	0	0
1	3902	0	0
1	3905	0	0
1	3908	0	0
1	3911	0	0
1	3914	0	0
1	3917	0	0
1	3920	0	0
1	3923	0	0
1	3926	0	0
1	3929	0	0
1	3932	0	0
1	3935	0	0
1	3938	0	0
1	3941	0	0
1	3944	0	0
1	3947	0	0
1	3950	0	0
1	3953	0	0
1	3956	0	0
1	3959	0	0
1	3962	0	0
1	3965	0	0
1	3968	0	0
1	3971	0	0
1	3974	0	0
1	3977	0	0
1	3980	0	0
1	3983	0	0
1	3986	0	0
1	3989	0	0
1	3992	0	0
1	3995	0	0
1	3998	0	0
1	4001	0	0
1	4004	0	0
1	4007	0	0
1	4010	0	0
1	4013	0	0
1	4016	0	0
1	4019	0	0
1	4022	0	0
1	4025	0	0
1	4028	0	0
1	4031	0	0
1	4034	0	0
1	4037	0	0
1	4040	0	0
1	4043	0	0
1	4046	0	0
1	4049	0	0
1	4052	0	0
1	4055	0	0
1	4058	0	0
1	4061	0	0
1	4064	0	0
1	4067	0	0
1	4070	0	0
1	4073	0	0
1	4076	0	0
1	4079	0	0
1	4082	0	0
1	4085	0	0
1	4088	0	0
1	4091	0	0
1	4094	0	0
1	4097	0	0
1	4100	0	0
1	4103	0	0
1	4106	0	0
1	4109	0	0
1	4112	0	0
1	4115	0	0
1	4118	0	0
1	4121	0	0
1	4124	0	0
1	4127	0	0
1	4130	0	0
1	4133	0	0
1	4136	0	0
1	4139	0	0
1	4142	0	0
1	4145	0	0
1	4148	0	0
1	4151	0	0
1	4154	0	0
1	4157	0	0
1	4160	0	0
1	4163	0	0
1	4166	0	0
1	4169	0	0
1	4172	0	0
1	4175	0	0
1	4178	0	0
1	4181	0	0
1	4184	0	0
1	4187	0	0
1	4190	0	0
1	4193	0	0
1	4196	0	0
1	4199	0	0
1	4202	0	0
1	4205	0	0
1	4208	0	0
1	4211	0	0
1	4214	0	0
1	4217	0	0
1	4220	0	0
1	4223	0	0
1	4226	0	0
1	4229	0	0
1	4232	0	0
1	4235	0	0
1	4238	0	0
1	4241	0	0
1	4244	0	0
1	4247	0	0
1	4250	0	0
1	4253	0	0
1	4256	0	0
1	4259	0	0
1	4262	0	0
1	4265	0	0
1	4268	0	0
1	4271	0	0
1	4274	0	0
1	4277	0	0
1	4280	0	0
1	4283	0	0
1	4286	0	0
1	4289	0	0
1	4292	0	0
1	4295	0	0
1	4298	0	0
1	4301	0	0
1	4304	0	0
1	4307	0	0
1	4310	0	0
1	4313	0	0
1	4316	0	0
1	4319	0	0
1	4322	0	0
1	4325	0	0
1	4328	0	0
1	4331	0	0
1	4334	0	0
1	4337	0	0
1	4340	0	0
1	4343	0	0
1	4346	0	0
1	4349	0	0
1	4352	0	0
1	4355	0	0
1	4358	0	0
1	4361	0	0
1	4364	0	0
1	4367	0	0
1	4370	0	0
1	4373	0	0
1	4376	0	0
1	4379	0	0
1	4382	0	0
1	4385	0	0
1	4388	0	0
1	4391	0	0
1	4394	0	0
1	4397	0	0
1	4400	0	0
1	4403	0	0
1	4406	0	0
1	4409	0	0
1	4412	0	0
1	4415	0	0
1	4418	0	0
1	4421	0	0
1	4424	0	0
1	4427	0	0
1	4430	0	0
1	4433	0	0
1	4436	0	0
1	4439	0	0
1	4442	0	0
1	4445	0	0
1	4448	0	0
1	4451	0	0
1	4454	0	0
1	4457	0	0
1	4460	0	0
1	4463	0	0
1	4466	0	0
1	4469	0	0
1	4472	0	0
1	4475	0	0
1	4478	0	0
1	4481	0	0
1	4484	0	0
1	4487	0	0
1	4490	0	0
1	4493	0	0
1	4496	0	0
1	4499	0	0
1	4502	0	0
1	4505	0	0
1	4508	0	0
1	4511	0	0
1	4514	0	0
1	4517	0	0
1	4520	0	0
1	4523	0	0
1	4526	0	0
1	4529	0	0
1	4532	0	0
1	4535	0	0
1	4538	0	0
1	4541	0	0
1	4544	0	0
1	4547	0	0
1	4550	0	0
1	4553	0	0
1	4556	0	0
1	4559	0	0
1	4562	0	0
1	4565	0	0
1	4568	0	0
1	4571	0	0
1	4574	0	0
1	4577	0	0
1	4580	0	0
1	4583	0	0
1	4586	0	0
1	4589	0	0
1	4592	0	0
1	4595	0	0
1	4598	0	0
1	4601	0	0
1	4604	0	0
1	4607	0	0
1	4610	0	0
1	4613	0	0
1	4616	0	0
1	4619	0	0
1	4622	0	0
1	4625	0	0
1	4628	0	0
1	4631	0	0
1	4634	0	0
1	4637	0	0
1	4640	0	0
1	4643	0	0
1	4646	0	0
1	4649	0	0
1	4652	0	0
1	4655	0	0
1	4658	0	0
1	4661	0	0
1	4664	0	0
1	4667	0	0
1	4670	0	0
1	4673	0	0
1	4676	0	0
1	4679	0	0
1	4682	0	0
1	4685	0	0
1	4688	0	0
1	4691	0	0
1	4694	0	0
1	4697	0	0
1	4700	0	0
1	4703	0	0
1	4706	0	0
1	4709	0	0
1	4712	0	0
1	4715	0	0
1	4718	0	0
1	4721	0	0
1	4724	0	0
1	4727	0	0
1	4730	0	0
1	4733	0	0
1	4736	0	0
1	4739	0	0
1	4742	0	0
1	4745	0	0
1	4748	0	0
1	4751	0	0
1	4754	0	0
1	4757	0	0
1	4760	0	0
1	4763	0	0
1	4766	0	0
1	4769	0	0
1	4772	0	0
1	4775	0	0
1	4778	0	0
1	4781	0	0
1	4784	0	0
1	4787	0	0
1	4790	0	0
1	4793	0	0
1	4796	0	0
1	4799	0	0
1	4802	0	0
1	4805	0	0
1	4808	0	0
1	4811	0	0
1	4814	0	0
1	4817	0	0
1	4820	0	0
1	4823	0	0
1	4826	0	0
1	4829	0	0
1	4832	0	0
1	4835	0	0
1	4838	0	0
1	4841	0	0
1	4844	0	0
1	4847	0	0
1	4850	0	0
1	4853	0	0
1	4856	0	0
1	4859	0	0
1	4862	0	0
1	4865	0	0
1	4868	0	0
1	4871	0	0
1	4874	0	0
1	4877	0	0
1	4880	0	0
1	4883	0	0
1	4886	0	0
1	4889	0	0
1	4892	0	0
1	4895	0	0
1	4898	0	0
1	4901	0	0
1	4904	0	0
1	4907	0	0
1	4910	0	0
1	4913	0	0
1	4916	0	0
1	4919	0	0
1	4922	0	0
1	4925	0	0
1	4928	0	0
1	4931	0	0
1	4934	0	0
1	4937	0	0
1	4940	0	0
1	4943	0	0
1	4946	0	0
1	4949	0	0
1	4952	0	0
1	4955	0	0
1	4958	0	0
1	4961	0	0
1	4964	0	0
1	4967	0	0
1	4970	0	0
1	4973	0	0
1	4976	0	0
1	4979	0	0
1	4982	0	0
1	4985	0	0
1	4988	0	0
1	4991	0	0
1	4994	0	0
1	4997	0	0
1	5000	0	0
1	5003	0	0
1	5006	0	0
1	5009	0	0
1	5012	0	0
1	5015	0	0
1	5018	0	0
1	5021	0	0
1	5024	0	0
1	5027	0	0
1	5030	0	0
1	5033	0	0
1	5036	0	0
1	5039	0	0
1	5042	0	0
1	5045	0	0
1	5048	0	0
1	5051	0	0
1	5054	0	0
1	5057	0	0
1	5060	0	0
1	5063	0	0
1	5066	0	0
1	5069	0	0
1	5072	0	0
1	5075	0	0
1	5078	0	0
1	5081	0	0
1	5084	0	0
1	5087	0	0
1	5090	0	0
1	5093	0	0
1	5096	0	0
1	5099	0	0
1	5102	0	0
1	5105	0	0
1	5108	0	0
1	5111	0	0
1	5114	0	0
1	5117	0	0
1	5120	0	0
1	5123	0	0
1	5126	0	0
1	5129	0	0
1	5132	0	0
1	5135	0	0
1	5138	0	0
1	5141	0	0
1	5144	0	0
1	5147	0	0
1	5150	0	0
1	5153	0	0
1	5156	0	0
1	5159	0	0
1	5162	0	0
1	5165	0	0
1	5168	0	0
1	5171	0	0
1	5174	0	0
1	5177	0	0
1	5180	0	0
1	5183	0	0
1	5186	0	0
1	5189	0	0
1	5192	0	0
1	5195	0	0
1	5198	0	0
1	5201	0	0
1	5204	0	0
1	5207	0	0
1	5210	0	0
1	5213	0	0
1	5216	0	0
1	5219	0	0
1	5222	0	0
1	5225	0	0
1	5228	0	0
1	5231	0	0
1	5234	0	0
1	5237	0	0
1	5240	0	0
1	5243	0	0
1	5246	0	0
1	5249	0	0
1	5252	0	0
1	5255	0	0
1	5258	0	0
1	5261	0	0
1	5264	0	0
1	5267	0	0
1	5270	0	0
1	5273	0	0
1	5276	0	0
1	5279	0	0
1	5282	0	0
1	5285	0	0
1	5288	0	0
1	5291	0	0
1	5294	0	0
1	5297	0	0
1	5300	0	0
1	5303	0	0
1	5306	0	0
1	5309	0	0
1	5312	0	0
1	5315	0	0
1	5318	0	0
1	5321	0	0
1	5324	0	0
1	5327	0	0
1	5330	0	0
1	5333	0	0
1	5336	0	0
1	5339	0	0
1	5342	0	0
1	5345	0	0
1	5348	0	0
1	5351	0	0
1	5354	0	0
1	5357	0	0
1	5360	0	0
1	5363	0	0
1	5366	0	0
1	5369	0	0
1	5372	0	0
1	5375	0	0
1	5378	0	0
1	5381	0	0
1	5384	0	0
1	5387	0	0
1	5390	0	0
1	5393	0	0
1	5396	0	0
1	5399	0	0
1	5402	0	0
1	5405	0	0
1	5408	0	0
1	5411	0	0
1	5414	0	0
1	5417	0	0
1	5420	0	0
1	5423	0	0
1	5426	0	0
1	5429	0	0
1	5432	0	0
1	5435	0	0
1	5438	0	0
1	5441	0	0
1	5444	0	0
1	5447	0	0
1	5450	0	0
1	5453	0	0
1	5456	0	0
1	5459	0	0
1	5462	0	0
1	5465	0	0
1	5468	0	0
1	5471	0	0
1	5474	0	0
1	5477	0	0
1	5480	0	0
1	5483	0	0
1	5486	0	0
1	5489	0	0
1	5492	0	0
1	5495	0	0
1	5498	0	0
1	5501	0	0
1	5504	0	0
1	5507	0	0
1	5510	0	0
1	5513	0	0
1	5516	0	0
1	5519	0	0
1	5522	0	0
1	5525	0	0
1	5528	0	0
1	5531	0	0
1	5534	0	0
1	5537	0	0
1	5540	0	0
1	5543	0	0
1	5546	0	0
1	5549	0	0
1	5552	0	0
1	5555	0	0
1	5558	0	0
1	5561	0	0
1	5564	0	0
1	5567	0	0
1	5570	0	0
1	5573	0	0
1	5576	0	0
1	5579	0	0
1	5582	0	0
1	5585	0	0
1	5588	0	0
1	5591	0	0
1	5594	0	0
1	5597	0	0
1	5600	0	0
1	5603	0	0
1	5606	0	0
1	5609	0	0
1	5612	0	0
1	5615	0	0
1	5618	0	0
1	5621	0	0
1	5624	0	0
1	5627	0	0
1	5630	0	0
1	5633	0	0
1	5636	0	0
1	5639	0	0
1	5642	0	0
1	5645	0	0
1	5648	0	0
1	5651	0	0
1	5654	0	0
1	5657	0	0
1	5660	0	0
1	5663	0	0
1	5666	0	0
1	5669	0	0
1	5672	0	0
1	5675	0	0
1	5678	0	0
1	5681	0	0
1	5684	0	0
1	5687	0	0
1	5690	0	0
1	5693	0	0
1	5696	0	0
1	5699	0	0
1	5702	0	0
1	5705	0	0
1	5708	0	0
1	5711	0	0
1	5714	0	0
1	5717	0	0
1	5720	0	0
1	5723	0	0
1	5726	0	0
1	5729	0	0
1	5732	0	0
1	5735	0	0
1	5738	0	0
1	5741	0	0
1	5744	0	0
1	5747	0	0
1	5750	0	0
1	5753	0	0
1	5756	0	0
1	5759	0	0
1	5762	0	0
1	5765	0	0
1	5768	0	0
1	5771	0	0
1	5774	0	0
1	5777	0	0
1	5780	0	0
1	5783	0	0
1	5786	0	0
1	5789	0	0
1	5792	0	0
1	5795	0	0
1	5798	0	0
1	5801	0	0
1	5804	0	0
1	5807	0	0
1	5810	0	0
1	5813	0	0
1	5816	0	0
1	5819	0	0
1	5822	0	0
1	5825	0	0
1	5828	0	0
1	5831	0	0
1	5834	0	0
1	5837	0	0
1	5840	0	0
1	5843	0	0
1	5846	0	0
1	5849	0	0
1	5852	0	0
1	5855	0	0
1	5858	0	0
1	5861	0	0
1	5864	0	0
1	5867	0	0
1	5870	0	0
1	5873	0	0
1	5876	0	0
1	5879	0	0
1	5882	0	0
1	5885	0	0
1	5888	0	0
1	5891	0	0
1	5894	0	0
1	5897	0	0
1	5900	0	0
1	5903	0	0
1	5906	0	0
1	5909	0	0
1	5912	0	0
1	5915	0	0
1	5918	0	0
1	5921	0	0
1	5924	0	0
1	5927	0	0
1	5930	0	0
1	5933	0	0
1	5936	0	0
1	5939	0	0
1	5942	0	0
1	5945	0	0
1	5948	0	0
1	5951	0	0
1	5954	0	0
1	5957	0	0
1	5960	0	0
1	5963	0	0
1	5966	0	0
1	5969	0	0
1	5972	0	0
1	5975	0	0
1	5978	0	0
1	5981	0	0
1	5984	0	0
1	5987	0	0
1	5990	0	0
1	5993	0	0
1	5996	0	0
1	5999	0	0
1	6002	0	0
1	6005	0	0
1	6008	0	0
1	6011	0	0
1	6014	0	0
1	6017	0	0
1	6020	0	0
1	6023	0	0
1	6026	0	0
1	6029	0	0
1	6032	0	0
1	6035	0	0
1	6038	0	0
1	6041	0	0
1	6044	0	0
1	6047	0	0
1	6050	0	0
1	6053	0	0
1	6056	0	0
1	6059	0	0
1	6062	0	0
1	6065	0	0
1	6068	0	0
1	6071	0	0
1	6074	0	0
1	6077	0	0
1	6080	0	0
1	6083	0	0
1	6086	0	0
1	6089	0	0
1	6092	0	0
1	6095	0	0
1	6098	0	0
1	6101	0	0
1	6104	0	0
1	6107	0	0
1	6110	0	0
1	6113	0	0
1	6116	0	0
1	6119	0	0
1	6122	0	0
1	6125	0	0
1	6128	0	0
1	6131	0	0
1	6134	0	0
1	6137	0	0
1	6140	0	0
1	6143	0	0
1	6146	0	0
1	6149	0	0
1	6152	0	0
1	6155	0	0
1	6158	0	0
1	6161	0	0
1	6164	0	0
1	6167	0	0
1	6170	0	0
1	6173	0	0
1	6176	0	0
1	6179	0	0
1	6182	0	0
1	6185	0	0
1	6188	0	0
1	6191	0	0
1	6194	0	0
1	6197	0	0
1	6200	0	0
1	6203	0	0
1	6206	0	0
1	6209	0	0
1	6212	0	0
1	6215	0	0
1	6218	0	0
1	6221	0	0
1	6224	0	0
1	6227	0	0
1	6230	0	0
1	6233	0	0
1	6236	0	0
1	6239	0	0
1	6242	0	0
1	6245	0	0
1	6248	0	0
1	6251	0	0
1	6254	0	0
1	6257	0	0
1	6260	0	0
1	6263	0	0
1	6266	0	0
1	6269	0	0
1	6272	0	0
1	6275	0	0
1	6278	0	0
1	6281	0	0
1	6284	0	0
1	6287	0	0
1	6290	0	0
1	6293	0	0
1	6296	0	0
1	6299	0	0
1	6302	0	0
1	6305	0	0
1	6308	0	0
1	6311	0	0
1	6314	0	0
1	6317	0	0
1	6320	0	0
1	6323	0	0
1	6326	0	0
1	6329	0	0
1	6332	0	0
1	6335	0	0
1	6338	0	0
1	6341	0	0
1	6344	0	0
1	6347	0	0
1	6350	0	0
1	6353	0	0
1	6356	0	0
1	6359	0	0
1	6362	0	0
1	6365	0	0
1	6368	0	0
1	6371	0	0
1	6374	0	0
1	6377	0	0
1	6380	0	0
1	6383	0	0
1	6386	0	0
1	6389	0	0
1	6392	0	0
1	6395	0	0
1	6398	0	0
1	6401	0	0
1	6404	0	0
1	6407	0	0
1	6410	0	0
1	6413	0	0
1	6416	0	0
1	6419	0	0
1	6422	0	0
1	6425	0	0
1	6428	0	0
1	6431	0	0
1	6434	0	0
1	6437	0	0
1	6440	0	0
1	6443	0	0
1	6446	0	0
1	6449	0	0
1	6452	0	0
1	6455	0	0
1	6458	0	0
1	6461	0	0
1	6464	0	0
1	6467	0	0
1	6470	0	0
1	6473	0	0
1	6476	0	0
1	6479	0	0
1	6482	0	0
1	6485	0	0
1	6488	0	0
1	6491	0	0
1	6494	0	0
1	6497	0	0
1	6500	0	0
1	6503	0	0
1	6506	0	0
1	6509	0	0
1	6512	0	0
1	6515	0	0
1	6518	0	0
1	6521	0	0
1	6524	0	0
1	6527	0	0
1	6530	0	0
1	6533	0	0
1	6536	0	0
1	6539	0	0
1	6542	0	0
1	6545	0	0
1	6548	0	0
1	6551	0	0
1	6554	0	0
1	6557	0	0
1	6560	0	0
1	6563	0	0
1	6566	0	0
1	6569	0	0
1	6572	0	0
1	6575	0	0
1	6578	0	0
1	6581	0	0
1	6584	0	0
1	6587	0	0
1	6590	0	0
1	6593	0	0
1	6596	0	0
1	6599	0	0
1	6602	0	0
1	6605	0	0
1	6608	0	0
1	6611	0	0
1	6614	0	0
1	6617	0	0
1	6620	0	0
1	6623	0	0
1	6626	0	0
1	6629	0	0
1	6632	0	0
1	6635	0	0
1	6638	0	0
1	6641	0	0
1	6644	0	0
1	6647	0	0
1	6650	0	0
1	6653	0	0
1	6656	0	0
1	6659	0	0
1	6662	0	0
1	6665	0	0
1	6668	0	0
1	6671	0	0
1	6674	0	0
1	6677	0	0
1	6680	0	0
1	6683	0	0
1	6686	0	0
1	6689	0	0
1	6692	0	0
1	6695	0	0
1	6698	0	0
1	6701	0	0
1	6704	0	0
1	6707	0	0
1	6710	0	0
1	6713	0	0
1	6716	0	0
1	6719	0	0
1	6722	0	0
1	6725	0	0
1	6728	0	0
1	6731	0	0
1	6734	0	0
1	6737	0	0
1	6740	0	0
1	6743	0	0
1	6746	0	0
1	6749	0	0
1	6752	0	0
1	6755	0	0
1	6758	0	0
1	6761	0	0
1	6764	0	0
1	6767	0	0
1	6770	0	0
1	6773	0	0
1	6776	0	0
1	6779	0	0
1	6782	0	0
1	6785	0	0
1	6788	0	0
1	6791	0	0
1	6794	0	0
1	6797	0	0
1	6800	0	0
1	6803	0	0
1	6806	0	0
1	6809	0	0
1	6812	0	0
1	6815	0	0
1	6818	0	0
1	6821	0	0
1	6824	0	0
1	6827	0	0
1	6830	0	0
1	6833	0	0
1	6836	0	0
1	6839	0	0
1	6842	0	0
1	6845	0	0
1	6848	0	0
1	6851	0	0
1	6854	0	0
1	6857	0	0
1	6860	0	0
1	6863	0	0
1	6866	0	0
1	6869	0	0
1	6872	0	0
1	6875	0	0
1	6878	0	0
1	6881	0	0
1	6884	0	0
1	6887	0	0
1	6890	0	0
1	6893	0	0
1	6896	0	0
1	6899	0	0
1	6902	0	0
1	6905	0	0
1	6908	0	0
1	6911	0	0
1	6914	0	0
1	6917	0	0
1	6920	0	0
1	6923	0	0
1	6926	0	0
1	6929	0	0
1	6932	0	0
1	6935	0	0
1	6938	0	0
1	6941	0	0
1	6944	0	0
1	6947	0	0
1	6950	0	0
1	6953	0	0
1	6956	0	0
1	6959	0	0
1	6962	0	0
1	6965	0	0
1	6968	0	0
1	6971	0	0
1	6974	0	0
1	6977	0	0
1	6980	0	0
1	6983	0	0
1	6986	0	0
1	6989	0	0
1	6992	0	0
1	6995	0	0
1	6998	0	0
1	7001	0	0
1	7004	0	0
1	7007	0	0
1	7010	0	0
1	7013	0	0
1	7016	0	0
1	7019	0	0
1	7022	0	0
1	7025	0	0
1	7028	0	0
1	7031	0	0
1	7034	0	0
1	7037	0	0
1	7040	0	0
1	7043	0	0
1	7046	0	0
1	7049	0	0
1	7052	0	0
1	7055	0	0
1	7058	0	0
1	7061	0	0
1	7064	0	0
1	7067	0	0
1	7070	0	0
1	7073	0	0
1	7076	0	0
1	7079	0	0
1	7082	0	0
1	7085	0	0
1	7088	0	0
1	7091	0	0
1	7094	0	0
1	7097	0	0
1	7100	0	0
1	7103	0	0
1	7106	0	0
1	7109	0	0
1	7112	0	0
1	7115	0	0
1	7118	0	0
1	7121	0	0
1	7124	0	0
1	7127	0	0
1	7130	0	0
1	7133	0	0
1	7136	0	0
1	7139	0	0
1	7142	0	0
1	7145	0	0
1	7148	0	0
1	7151	0	0
1	7154	0	0
1	7157	0	0
1	7160	0	0
1	7163	0	0
1	7166	0	0
1	7169	0	0
1	7172	0	0
1	7175	0	0
1	7178	0	0
1	7181	0	0
1	7184	0	0
1	7187	0	0
1	7190	0	0
1	7193	0	0
1	7196	0	0
1	7199	0	0
1	7202	0	0
1	7205	0	0
1	7208	0	0
1	7211	0	0
1	7214	0	0
1	7217	0	0
1	7220	0	0
1	7223	0	0
1	7226	0	0
1	7229	0	0
1	7232	0	0
1	7235	0	0
1	7238	0	0
1	7241	0	0
1	7244	0	0
1	7247	0	0
1	7250	0	0
1	7253	0	0
1	7256	0	0
1	7259	0	0
1	7262	0	0
1	7265	0	0
1	7268	0	0
1	7271	0	0
1	7274	0	0
1	7277	0	0
1	7280	0	0
1	7283	0	0
1	7286	0	0
1	7289	0	0
1	7292	0	0
1	7295	0	0
1	7298	0	0
1	7301	0	0
1	7304	0	0
1	7307	0	0
1	7310	0	0
1	7313	0	0
1	7316	0	0
1	7319	0	0
1	7322	0	0
1	7325	0	0
1	7328	0	0
1	7331	0	0
1	7334	0	0
1	7337	0	0
1	7340	0	0
1	7343	0	0
1	7346	0	0
1	7349	0	0
1	7352	0	0
1	7355	0	0
1	7358	0	0
1	7361	0	0
1	7364	0	0
1	7367	0	0
1	7370	0	0
1	7373	0	0
1	7376	0	0
1	7379	0	0
1	7382	0	0
1	7385	0	0
1	7388	0	0
1	7391	0	0
1	7394	0	0
1	7397	0	0
1	7400	0	0
1	7403	0	0
1	7406	0	0
1	7409	0	0
1	7412	0	0
1	7415	0	0
1	7418	0	0
1	7421	0	0
1	7424	0	0
1	7427	0	0
1	7430	0	0
1	7433	0	0
1	7436	0	0
1	7439	0	0
1	7442	0	0
1	7445	0	0
1	7448	0	0
1	7451	0	0
1	7454	0	0
1	7457	0	0
1	7460	0	0
1	7463	0	0
1	7466	0	0
1	7469	0	0
1	7472	0	0
1	7475	0	0
1	7478	0	0
1	7481	0	0
1	7484	0	0
1	7487	0	0
1	7490	0	0
1	7493	0	0
1	7496	0	0
1	7499	0	0
1	7502	0	0
1	7505	0	0
1	7508	0	0
1	7511	0	0
1	7514	0	0
1	7517	0	0
1	7520	0	0
1	7523	0	0
1	7526	0	0
1	7529	0	0
1	7532	0	0
1	7535	0	0
1	7538	0	0
1	7541	0	0
1	7544	0	0
1	7547	0	0
1	7550	0	0
1	7553	0	0
1	7556	0	0
1	7559	0	0
1	7562	0	0
1	7565	0	0
1	7568	0	0
1	7571	0	0
1	7574	0	0
1	7577	0	0
1	7580	0	0
1	7583	0	0
1	7586	0	0
1	7589	0	0
1	7592	0	0
1	7595	0	0
1	7598	0	0
1	7601	0	0
1	7604	0	0
1	7607	0	0
1	7610	0	0
1	7613	0	0
1	7616	0	0
1	7619	0	0
1	7622	0	0
1	7625	0	0
1	7628	0	0
1	7631	0	0
1	7634	0	0
1	7637	0	0
1	7640	0	0
1	7643	0	0
1	7646	0	0
1	7649	0	0
1	7652	0	0
1	7655	0	0
1	7658	0	0
1	7661	0	0
1	7664	0	0
1	7667	0	0
1	7670	0	0
1	7673	0	0
1	7676	0	0
1	7679	0	0
1	7682	0	0
1	7685	0	0
1	7688	0	0
1	7691	0	0
1	7694	0	0
1	7697	0	0
1	7700	0	0
1	7703	0	0
1	7706	0	0
1	7709	0	0
1	7712	0	0
1	7715	0	0
1	7718	0	0
1	7721	0	0
1	7724	0	0
1	7727	0	0
1	7730	0	0
1	7733	0	0
1	7736	0	0
1	7739	0	0
1	7742	0	0
1	7745	0	0
1	7748	0	0
1	7751	0	0
1	7754	0	0
1	7757	0	0
1	7760	0	0
1	7763	0	0
1	7766	0	0
1	7769	0	0
1	7772	0	0
1	7775	0	0
1	7778	0	0
1	7781	0	0
1	7784	0	0
1	7787	0	0
1	7790	0	0
1	7793	0	0
1	7796	0	0
1	7799	0	0
1	7802	0	0
1	7805	0	0
1	7808	0	0
1	7811	0	0
1	7814	0	0
1	7817	0	0
1	7820	0	0
1	7823	0	0
1	7826	0	0
1	7829	0	0
1	7832	0	0
1	7835	0	0
1	7838	0	0
1	7841	0	0
1	7844	0	0
1	7847	0	0
1	7850	0	0
1	7853	0	0
1	7856	0	0
1	7859	0	0
1	7862	0	0
1	7865	0	0
1	7868	0	0
1	7871	0	0
1	7874	0	0
1	7877	0	0
1	7880	0	0
1	7883	0	0
1	7886	0	0
1	7889	0	0
1	7892	0	0
1	7895	0	0
1	7898	0	0
1	7901	0	0
1	7904	0	0
1	7907	0	0
1	7910	0	0
1	7913	0	0
1	7916	0	0
1	7919	0	0
1	7922	0	0
1	7925	0	0
1	7928	0	0
1	7931	0	0
1	7934	0	0
1	7937	0	0
1	7940	0	0
1	7943	0	0
1	7946	0	0
1	7949	0	0
1	7952	0	0
1	7955	0	0
1	7958	0	0
1	7961	0	0
1	7964	0	0
1	7967	0	0
1	7970	0	0
1	7973	0	0
1	7976	0	0
1	7979	0	0
1	7982	0	0
1	7985	0	0
1	7988	0	0
1	7991	0	0
1	7994	0	0
1	7997	0	0
1	8000	0	0
1	8003	0	0
1	8006	0	0
1	8009	0	0
1	8012	0	0
1	8015	0	0
1	8018	0	0
1	8021	0	0
1	8024	0	0
1	8027	0	0
1	8030	0	0
1	8033	0	0
1	8036	0	0
1	8039	0	0
1	8042	0	0
1	8045	0	0
1	8048	0	0
1	8051	0	0
1	8054	0	0
1	8057	0	0
1	8060	0	0
1	8063	0	0
1	8066	0	0
1	8069	0	0
1	8072	0	0
1	8075	0	0
1	8078	0	0
1	8081	0	0
1	8084	0	0
1	8087	0	0
1	8090	0	0
1	8093	0	0
1	8096	0	0
1	8099	0	0
1	8102	0	0
1	8105	0	0
1	8108	0	0
1	8111	0	0
1	8114	0	0
1	8117	0	0
1	8120	0	0
1	8123	0	0
1	8126	0	0
1	8129	0	0
1	8132	0	0
1	8135	0	0
1	8138	0	0
1	8141	0	0
1	8144	0	0
1	8147	0	0
1	8150	0	0
1	8153	0	0
1	8156	0	0
1	8159	0	0
1	8162	0	0
1	8165	0	0
1	8168	0	0
1	8171	0	0
1	8174	0	0
1	8177	0	0
1	8180	0	0
1	8183	0	0
1	8186	0	0
1	8189	0	0
1	8192	0	0
1	8195	0	0
1	8198	0	0
1	8201	0	0
1	8204	0	0
1	8207	0	0
1	8210	0	0
1	8213	0	0
1	8216	0	0
1	8219	0	0
1	8222	0	0
1	8225	0	0
1	8228	0	0
1	8231	0	0
1	8234	0	0
1	8237	0	0
1	8240	0	0
1	8243	0	0
1	8246	0	0
1	8249	0	0
1	8252	0	0
1	8255	0	0
1	8258	0	0
1	8261	0	0
1	8264	0	0
1	8267	0	0
1	8270	0	0
1	8273	0	0
1	8276	0	0
1	8279	0	0
1	8282	0	0
1	8285	0	0
1	8288	0	0
1	8291	0	0
1	8294	0	0
1	8297	0	0
1	8300	0	0
1	8303	0	0
1	8306	0	0
1	8309	0	0
1	8312	0	0
1	8315	0	0
1	8318	0	0
1	8321	0	0
1	8324	0	0
1	8327	0	0
1	8330	0	0
1	8333	0	0
1	8336	0	0
1	8339	0	0
1	8342	0	0
1	8345	0	0
1	8348	0	0
1	8351	0	0
1	8354	0	0
1	8357	0	0
1	8360	0	0
1	8363	0	0
1	8366	0	0
1	8369	0	0
1	8372	0	0
1	8375	0	0
1	8378	0	0
1	8381	0	0
1	8384	0	0
1	8387	0	0
1	8390	0	0
1	8393	0	0
1	8396	0	0
1	8399	0	0
1	8402	0	0
1	8405	0	0
1	8408	0	0
1	8411	0	0
1	8414	0	0
1	8417	0	0
1	8420	0	0
1	8423	0	0
1	8426	0	0
1	8429	0	0
1	8432	0	0
1	8435	0	0
1	8438	0	0
1	8441	0	0
1	8444	0	0
1	8447	0	0
1	8450	0	0
1	8453	0	0
1	8456	0	0
1	8459	0	0
1	8462	0	0
1	8465	0	0
1	8468	0	0
1	8471	0	0
1	8474	0	0
1	8477	0	0
1	8480	0	0
1	8483	0	0
1	8486	0	0
1	8489	0	0
1	8492	0	0
1	8495	0	0
1	8498	0	0
1	8501	0	0
1	8504	0	0
1	8507	0	0
1	8510	0	0
1	8513	0	0
1	8516	0	0
1	8519	0	0
1	8522	0	0
1	8525	0	0
1	8528	0	0
1	8531	0	0
1	8534	0	0
1	8537	0	0
1	8540	0	0
1	8543	0	0
1	8546	0	0
1	8549	0	0
1	8552	0	0
1	8555	0	0
1	8558	0	0
1	8561	0	0
1	8564	0	0
1	8567	0	0
1	8570	0	0
1	8573	0	0
1	8576	0	0
1	8579	0	0
1	8582	0	0
1	8585	0	0
1	8588	0	0
1	8591	0	0
1	8594	0	0
1	8597	0	0
1	8600	0	0
1	8603	0	0
1	8606	0	0
1	8609	0	0
1	8612	0	0
1	8615	0	0
1	8618	0	0
1	8621	0	0
1	8624	0	0
1	8627	0	0
1	8630	0	0
1	8633	0	0
1	8636	0	0
1	8639	0	0
1	8642	0	0
1	8645	0	0
1	8648	0	0
1	8651	0	0
1	8654	0	0
1	8657	0	0
1	8660	0	0
1	8663	0	0
1	8666	0	0
1	8669	0	0
1	8672	0	0
1	8675	0	0
1	8678	0	0
1	8681	0	0
1	8684	0	0
1	8687	0	0
1	8690	0	0
1	8693	0	0
1	8696	0	0
1	8699	0	0
1	8702	0	0
1	8705	0	0
1	8708	0	0
1	8711	0	0
1	8714	0	0
1	8717	0	0
1	8720	0	0
1	8723	0	0
1	8726	0	0
1	8729	0	0
1	8732	0	0
1	8735	0	0
1	8738	0	0
1	8741	0	0
1	8744	0	0
1	8747	0	0
1	8750	0	0
1	8753	0	0
1	8756	0	0
1	8759	0	0
1	8762	0	0
1	8765	0	0
1	8768	0	0
1	8771	0	0
1	8774	0	0
1	8777	0	0
1	8780	0	0
1	8783	0	0
1	8786	0	0
1	8789	0	0
1	8792	0	0
1	8795	0	0
1	8798	0	0
1	8801	0	0
1	8804	0	0
1	8807	0	0
1	8810	0	0
1	8813	0	0
1	8816	0	0
1	8819	0	0
1	8822	0	0
1	8825	0	0
1	8828	0	0
1	8831	0	0
1	8834	0	0
1	8837	0	0
1	8840	0	0
1	8843	0	0
1	8846	0	0
1	8849	0	0
1	8852	0	0
1	8855	0	0
1	8858	0	0
1	8861	0	0
1	8864	0	0
1	8867	0	0
1	8870	0	0
1	8873	0	0
1	8876	0	0
1	8879	0	0
1	8882	0	0
1	8885	0	0
1	8888	0	0
1	8891	0	0
1	8894	0	0
1	8897	0	0
1	8900	0	0
1	8903	0	0
1	8906	0	0
1	8909	0	0
1	8912	0	0
1	8915	0	0
1	8918	0	0
1	8921	0	0
1	8924	0	0
1	8927	0	0
1	8930	0	0
1	8933	0	0
1	8936	0	0
1	8939	0	0
1	8942	0	0
1	8945	0	0
1	8948	0	0
1	8951	0	0
1	8954	0	0
1	8957	0	0
1	8960	0	0
1	8963	0	0
1	8966	0	0
1	8969	0	0
1	8972	0	0
1	8975	0	0
1	8978	0	0
1	8981	0	0
1	8984	0	0
1	8987	0	0
1	8990	0	0
1	8993	0	0
1	8996	0	0
1	8999	0	0
1	9002	0	0
1	9005	0	0
1	9008	0	0
1	9011	0	0
1	9014	0	0
1	9017	0	0
1	9020	0	0
1	9023	0	0
1	9026	0	0
1	9029	0	0
1	9032	0	0
1	9035	0	0
1	9038	0	0
1	9041	0	0
1	9044	0	0
1	9047	0	0
1	9050	0	0
1	9053	0	0
1	9056	0	0
1	9059	0	0
1	9062	0	0
1	9065	0	0
1	9068	0	0
1	9071	0	0
1	9074	0	0
1	9077	0	0
1	9080	0	0
1	9083	0	0
1	9086	0	0
1	9089	0	0
1	9092	0	0
1	9095	0	0
1	9098	0	0
1	9101	0	0
1	9104	0	0
1	9107	0	0
1	9110	0	0
1	9113	0	0
1	9116	0	0
1	9119	0	0
1	9122	0	0
1	9125	0	0
1	9128	0	0
1	9131	0	0
1	9134	0	0
1	9137	0	0
1	9140	0	0
1	9143	0	0
1	9146	0	0
1	9149	0	0
1	9152	0	0
1	9155	0	0
1	9158	0	0
1	9161	0	0
1	9164	0	0
1	9167	0	0
1	9170	0	0
1	9173	0	0
1	9176	0	0
1	9179	0	0
1	9182	0	0
1	9185	0	0
1	9188	0	0
1	9191	0	0
1	9194	0	0
1	9197	0	0
1	9200	0	0
1	9203	0	0
1	9206	0	0
1	9209	0	0
1	9212	0	0
1	9215	0	0
1	9218	0	0
1	9221	0	0
1	9224	0	0
1	9227	0	0
1	9230	0	0
1	9233	0	0
1	9236	0	0
1	9239	0	0
1	9242	0	0
1	9245	0	0
1	9248	0	0
1	9251	0	0
1	9254	0	0
1	9257	0	0
1	9260	0	0
1	9263	0	0
1	9266	0	0
1	9269	0	0
1	9272	0	0
1	9275	0	0
1	9278	0	0
1	9281	0	0
1	9284	0	0
1	9287	0	0
1	9290	0	0
1	9293	0	0
1	9296	0	0
1	9299	0	0
1	9302	0	0
1	9305	0	0
1	9308	0	0
1	9311	0	0
1	9314	0	0
1	9317	0	0
1	9320	0	0
1	9323	0	0
1	9326	0	0
1	9329	0	0
1	9332	0	0
1	9335	0	0
1	9338	0	0
1	9341	0	0
1	9344	0	0
1	9347	0	0
1	9350	0	0
1	9353	0	0
1	9356	0	0
1	9359	0	0
1	9362	0	0
1	9365	0	0
1	9368	0	0
1	9371	0	0
1	9374	0	0
1	9377	0	0
1	9380	0	0
1	9383	0	0
1	9386	0	0
1	9389	0	0
1	9392	0	0
1	9395	0	0
1	9398	0	0
1	9401	0	0
1	9404	0	0
1	9407	0	0
1	9410	0	0
1	9413	0	0
1	9416	0	0
1	9419	0	0
1	9422	0	0
1	9425	0	0
1	9428	0	0
1	9431	0	0
1	9434	0	0
1	9437	0	0
1	9440	0	0
1	9443	0	0
1	9446	0	0
1	9449	0	0
1	9452	0	0
1	9455	0	0
1	9458	0	0
1	9461	0	0
1	9464	0	0
1	9467	0	0
1	9470	0	0
1	9473	0	0
1	9476	0	0
1	9479	0	0
1	9482	0	0
1	9485	0	0
1	9488	0	0
1	9491	0	0
1	9494	0	0
1	9497	0	0
1	9500	0	0
1	9503	0	0
1	9506	0	0
1	9509	0	0
1	9512	0	0
1	9515	0	0
1	9518	0	0
1	9521	0	0
1	9524	0	0
1	9527	0	0
1	9530	0	0
1	9533	0	0
1	9536	0	0
1	9539	0	0
1	9542	0	0
1	9545	0	0
1	9548	0	0
1	9551	0	0
1	9554	0	0
1	9557	0	0
1	9560	0	0
1	9563	0	0
1	9566	0	0
1	9569	0	0
1	9572	0	0
1	9575	0	0
1	9578	0	0
1	9581	0	0
1	9584	0	0
1	9587	0	0
1	9590	0	0
1	9593	0	0
1	9596	0	0
1	9599	0	0
1	9602	0	0
1	9605	0	0
1	9608	0	0
1	9611	0	0
1	9614	0	0
1	9617	0	0
1	9620	0	0
1	9623	0	0
1	9626	0	0
1	9629	0	0
1	9632	0	0
1	9635	0	0
1	9638	0	0
1	9641	0	0
1	9644	0	0
1	9647	0	0
1	9650	0	0
1	9653	0	0
1	9656	0	0
1	9659	0	0
1	9662	0	0
1	9665	0	0
1	9668	0	0
1	9671	0	0
1	9674	0	0
1	9677	0	0
1	9680	0	0
1	9683	0	0
1	9686	0	0
1	9689	0	0
1	9692	0	0
1	9695	0	0
1	9698	0	0
1	9701	0	0
1	9704	0	0
1	9707	0	0
1	9710	0	0
1	9713	0	0
1	9716	0	0
1	9719	0	0
1	9722	0	0
1	9725	0	0
1	9728	0	0
1	9731	0	0
1	9734	0	0
1	9737	0	0
1	9740	0	0
1	9743	0	0
1	9746	0	0
1	9749	0	0
1	9752	0	0
1	9755	0	0
1	9758	0	0
1	9761	0	0
1	9764	0	0
1	9767	0	0
1	9770	0	0
1	9773	0	0
1	9776	0	0
1	9779	0	0
1	9782	0	0
1	9785	0	0
1	9788	0	0
1	9791	0	0
1	9794	0	0
1	9797	0	0
1	9800	0	0
1	9803	0	0
1	9806	0	0
1	9809	0	0
1	9812	0	0
1	9815	0	0
1	9818	0	0
1	9821	0	0
1	9824	0	0
1	9827	0	0
1	9830	0	0
1	9833	0	0
1	9836	0	0
1	9839	0	0
1	9842	0	0
1	9845	0	0
1	9848	0	0
1	9851	0	0
1	9854	0	0
1	9857	0	0
1	9860	0	0
1	9863	0	0
1	9866	0	0
1	9869	0	0
1	9872	0	0
1	9875	0	0
1	9878	0	0
1	9881	0	0
1	9884	0	0
1	9887	0	0
1	9890	0	0
1	9893	0	0
1	9896	0	0
1	9899	0	0
1	9902	0	0
1	9905	0	0
1	9908	0	0
1	9911	0	0
1	9914	0	0
1	9917	0	0
1	9920	0	0
1	9923	0	0
1	9926	0	0
1	9929	0	0
1	9932	0	0
1	9935	0	0
1	9938	0	0
1	9941	0	0
1	9944	0	0
1	9947	0	0
1	9950	0	0
1	9953	0	0
1	9956	0	0
1	9959	0	0
1	9962	0	0
1	9965	0	0
1	9968	0	0
1	9971	0	0
1	9974	0	0
1	9977	0	0
1	9980	0	0
1	9983	0	0
1	9986	0	0
1	9989	0	0
1	9992	0	0
1	9995	0	0
1	9998	0	0
1	10001	0	0
1	10004	0	0
1	10007	0	0
1	10010	0	0
1	10013	0	0
1	10016	0	0
1	10019	0	0
1	10022	0	0
1	10025	0	0
1	10028	0	0
1	10031	0	0
1	10034	0	0
1	10037	0	0
1	10040	0	0
1	10043	0	0
1	10046	0	0
1	10049	0	0
1	10052	0	0
1	10055	0	0
1	10058	0	0
1	10061	0	0
1	10064	0	0
1	10067	0	0
1	10070	0	0
1	10073	0	0
1	10076	0	0
1	10079	0	0
1	10082	0	0
1	10085	0	0
1	10088	0	0
1	10091	0	0
1	10094	0	0
1	10097	0	0
1	10100	0	0
1	10103	0	0
1	10106	0	0
1	10109	0	0
1	10112	0	0
1	10115	0	0
1	10118	0	0
1	10121	0	0
1	10124	0	0
1	10127	0	0
1	10130	0	0
1	10133	0	0
1	10136	0	0
1	10139	0	0
1	10142	0	0
1	10145	0	0
1	10148	0	0
1	10151	0	0
1	10154	0	0
1	10157	0	0
1	10160	0	0
1	10163	0	0
1	10166	0	0
1	10169	0	0
1	10172	0	0
1	10175	0	0
1	10178	0	0
1	10181	0	0
1	10184	0	0
1	10187	0	0
1	10190	0	0
1	10193	0	0
1	10196	0	0
1	10199	0	0
1	10202	0	0
1	10205	0	0
1	10208	0	0
1	10211	0	0
1	10214	0	0
1	10217	0	0
1	10220	0	0
1	10223	0	0
1	10226	0	0
1	10229	0	0
1	10232	0	0
1	10235	0	0
1	10238	0	0
1	10241	0	0
1	10244	0	0
1	10247	0	0
1	10250	0	0
1	10253	0	0
1	10256	0	0
1	10259	0	0
1	10262	0	0
1	10265	0	0
1	10268	0	0
1	10271	0	0
1	10274	0	0
1	10277	0	0
1	10280	0	0
1	10283	0	0
1	10286	0	0
1	10289	0	0
1	10292	0	0
1	10295	0	0
1	10298	0	0
1	10301	0	0
1	10304	0	0
1	10307	0	0
1	10310	0	0
1	10313	0	0
1	10316	0	0
1	10319	0	0
1	10322	0	0
1	10325	0	0
1	10328	0	0
1	10331	0	0
1	10334	0	0
1	10337	0	0
1	10340	0	0
1	10343	0	0
1	10346	0	0
1	10349	0	0
1	10352	0	0
1	10355	0	0
1	10358	0	0
1	10361	0	0
1	10364	0	0
1	10367	0	0
1	10370	0	0
1	10373	0	0
1	10376	0	0
1	10379	0	0
1	10382	0	0
1	10385	0	0
1	10388	0	0
1	10391	0	0
1	10394	0	0
1	10397	0	0
1	10400	0	0
1	10403	0	0
1	10406	0	0
1	10409	0	0
1	10412	0	0
1	10415	0	0
1	10418	0	0
1	10421	0	0
1	10424	0	0
1	10427	0	0
1	10430	0	0
1	10433	0	0
1	10436	0	0
1	10439	0	0
1	10442	0	0
1	10445	0	0
1	10448	0	0
1	10451	0	0
1	10454	0	0
1	10457	0	0
1	10460	0	0
1	10463	0	0
1	10466	0	0
1	10469	0	0
1	10472	0	0
1	10475	0	0
1	10478	0	0
1	10481	0	0
1	10484	0	0
1	10487	0	0
1	10490	0	0
1	10493	0	0
1	10496	0	0
1	10499	0	0
1	10502	0	0
1	10505	0	0
1	10508	0	0
1	10511	0	0
1	10514	0	0
1	10517	0	0
1	10520	0	0
1	10523	0	0
1	10526	0	0
1	10529	0	0
1	10532	0	0
1	10535	0	0
1	10538	0	0
1	10541	0	0
1	10544	0	0
1	10547	0	0
1	10550	0	0
1	10553	0	0
1	10556	0	0
1	10559	0	0
1	10562	0	0
1	10565	0	0
1	10568	0	0
1	10571	0	0
1	10574	0	0
1	10577	0	0
1	10580	0	0
1	10583	0	0
1	10586	0	0
1	10589	0	0
1	10592	0	0
1	10595	0	0
1	10598	0	0
1	10601	0	0
1	10604	0	0
1	10607	0	0
1	10610	0	0
1	10613	0	0
1	10616	0	0
1	10619	0	0
1	10622	0	0
1	10625	0	0
1	10628	0	0
1	10631	0	0
1	10634	0	0
1	10637	0	0
1	10640	0	0
1	10643	0	0
1	10646	0	0
1	10649	0	0
1	10652	0	0
1	10655	0	0
1	10658	0	0
1	10661	0	0
1	10664	0	0
1	10667	0	0
1	10670	0	0
1	10673	0	0
1	10676	0	0
1	10679	0	0
1	10682	0	0
1	10685	0	0
1	10688	0	0
1	10691	0	0
1	10694	0	0
1	10697	0	0
1	10700	0	0
1	10703	0	0
1	10706	0	0
1	10709	0	0
1	10712	0	0
1	10715	0	0
1	10718	0	0
1	10721	0	0
1	10724	0	0
1	10727	0	0
1	10730	0	0
1	10733	0	0
1	10736	0	0
1	10739	0	0
1	10742	0	0
1	10745	0	0
1	10748	0	0
1	10751	0	0
1	10754	0	0
1	10757	0	0
1	10760	0	0
1	10763	0	0
1	10766	0	0
1	10769	0	0
1	10772	0	0
1	10775	0	0
1	10778	0	0
1	10781	0	0
1	10784	0	0
1	10787	0	0
1	10790	0	0
1	10793	0	0
1	10796	0	0
1	10799	0	0
1	10802	0	0
1	10805	0	0
1	10808	0	0
1	10811	0	0
1	10814	0	0
1	10817	0	0
1	10820	0	0
1	10823	0	0
1	10826	0	0
1	10829	0	0
1	10832	0	0
1	10835	0	0
1	10838	0	0
1	10841	0	0
1	10844	0	0
1	10847	0	0
1	10850	0	0
1	10853	0	0
1	10856	0	0
1	10859	0	0
1	10862	0	0
1	10865	0	0
1	10868	0	0
1	10871	0	0
1	10874	0	0
1	10877	0	0
1	10880	0	0
1	10883	0	0
1	10886	0	0
1	10889	0	0
1	10892	0	0
1	10895	0	0
1	10898	0	0
1	10901	0	0
1	10904	0	0
1	10907	0	0
1	10910	0	0
1	10913	0	0
1	10916	0	0
1	10919	0	0
1	10922	0	0
1	10925	0	0
1	10928	0	0
1	10931	0	0
1	10934	0	0
1	10937	0	0
1	10940	0	0
1	10943	0	0
1	10946	0	0
1	10949	0	0
1	10952	0	0
1	10955	0	0
1	10958	0	0
1	10961	0	0
1	10964	0	0
1	10967	0	0
1	10970	0	0
1	10973	0	0
1	10976	0	0
1	10979	0	0
1	10982	0	0
1	10985	0	0
1	10988	0	0
1	10991	0	0
1	10994	0	0
1	10997	0	0
1	11000	0	0
1	11003	0	0
1	11006	0	0
1	11009	0	0
1	11012	0	0
1	11015	0	0
1	11018	0	0
1	11021	0	0
1	11024	0	0
1	11027	0	0
1	11030	0	0
1	11033	0	0
1	11036	0	0
1	11039	0	0
1	11042	0	0
1	11045	0	0
1	11048	0	0
1	11051	0	0
1	11054	0	0
1	11057	0	0
1	11060	0	0
1	11063	0	0
1	11066	0	0
1	11069	0	0
1	11072	0	0
1	11075	0	0
1	11078	0	0
1	11081	0	0
1	11084	0	0
1	11087	0	0
1	11090	0	0
1	11093	0	0
1	11096	0	0
1	11099	0	0
1	11102	0	0
1	11105	0	0
1	11108	0	0
1	11111	0	0
1	11114	0	0
1	11117	0	0
1	11120	0	0
1	11123	0	0
1	11126	0	0
1	11129	0	0
1	11132	0	0
1	11135	0	0
1	11138	0	0
1	11141	0	0
1	11144	0	0
1	11147	0	0
1	11150	0	0
1	11153	0	0
1	11156	0	0
1	11159	0	0
1	11162	0	0
1	11165	0	0
1	11168	0	0
1	11171	0	0
1	11174	0	0
1	11177	0	0
1	11180	0	0
1	11183	0	0
1	11186	0	0
1	11189	0	0
1	11192	0	0
1	11195	0	0
1	11198	0	0
1	11201	0	0
1	11204	0	0
1	11207	0	0
1	11210	0	0
1	11213	0	0
1	11216	0	0
1	11219	0	0
1	11222	0	0
1	11225	0	0
1	11228	0	0
1	11231	0	0
1	11234	0	0
1	11237	0	0
1	11240	0	0
1	11243	0	0
1	11246	0	0
1	11249	0	0
1	11252	0	0
1	11255	0	0
1	11258	0	0
1	11261	0	0
1	11264	0	0
1	11267	0	0
1	11270	0	0
1	11273	0	0
1	11276	0	0
1	11279	0	0
1	11282	0	0
1	11285	0	0
1	11288	0	0
1	11291	0	0
1	11294	0	0
1	11297	0	0
1	11300	0	0
1	11303	0	0
1	11306	0	0
1	11309	0	0
1	11312	0	0
1	11315	0	0
1	11318	0	0
1	11321	0	0
1	11324	0	0
1	11327	0	0
1	11330	0	0
1	11333	0	0
1	11336	0	0
1	11339	0	0
1	11342	0	0
1	11345	0	0
1	11348	0	0
1	11351	0	0
1	11354	0	0
1	11357	0	0
1	11360	0	0
1	11363	0	0
1	11366	0	0
1	11369	0	0
1	11372	0	0
1	11375	0	0
1	11378	0	0
1	11381	0	0
1	11384	0	0
1	11387	0	0
1	11390	0	0
1	11393	0	0
1	11396	0	0
1	11399	0	0
1	11402	0	0
1	11405	0	0
1	11408	0	0
1	11411	0	0
1	11414	0	0
1	11417	0	0
1	11420	0	0
1	11423	0	0
1	11426	0	0
1	11429	0	0
1	11432	0	0
1	11435	0	0
1	11438	0	0
1	11441	0	0
1	11444	0	0
1	11447	0	0
1	11450	0	0
1	11453	0	0
1	11456	0	0
1	11459	0	0
1	11462	0	0
1	11465	0	0
1	11468	0	0
1	11471	0	0
1	11474	0	0
1	11477	0	0
1	11480	0	0
1	11483	0	0
1	11486	0	0
1	11489	0	0
1	11492	0	0
1	11495	0	0
1	11498	0	0
1	11501	0	0
1	11504	0	0
1	11507	0	0
1	11510	0	0
1	11513	0	0
1	11516	0	0
1	11519	0	0
1	11522	0	0
1	11525	0	0
1	11528	0	0
1	11531	0	0
1	11534	0	0
1	11537	0	0
1	11540	0	0
1	11543	0	0
1	11546	0	0
1	11549	0	0
1	11552	0	0
1	11555	0	0
1	11558	0	0
1	11561	0	0
1	11564	0	0
1	11567	0	0
1	11570	0	0
1	11573	0	0
1	11576	0	0
1	11579	0	0
1	11582	0	0
1	11585	0	0
1	11588	0	0
1	11591	0	0
1	11594	0	0
1	11597	0	0
1	11600	0	0
1	11603	0	0
1	11606	0	0
1	11609	0	0
1	11612	0	0
1	11615	0	0
1	11618	0	0
1	11621	0	0
1	11624	0	0
1	11627	0	0
1	11630	0	0
1	11633	0	0
1	11636	0	0
1	11639	0	0
1	11642	0	0
1	11645	0	0
1	11648	0	0
1	11651	0	0
1	11654	0	0
1	11657	0	0
1	11660	0	0
1	11663	0	0
1	11666	0	0
1	11669	0	0
1	11672	0	0
1	11675	0	0
1	11678	0	0
1	11681	0	0
1	11684	0	0
1	11687	0	0
1	11690	0	0
1	11693	0	0
1	11696	0	0
1	11699	0	0
1	11702	0	0
1	11705	0	0
1	11708	0	0
1	11711	0	0
1	11714	0	0
1	11717	0	0
1	11720	0	0
1	11723	0	0
1	11726	0	0
1	11729	0	0
1	11732	0	0
1	11735	0	0
1	11738	0	0
1	11741	0	0
1	11744	0	0
1	11747	0	0
1	11750	0	0
1	11753	0	0
1	11756	0	0
1	11759	0	0
1	11762	0	0
1	11765	0	0
1	11768	0	0
1	11771	0	0
1	11774	0	0
1	11777	0	0
1	11780	0	0
1	11783	0	0
1	11786	0	0
1	11789	0	0
1	11792	0	0
1	11795	0	0
1	11798	0	0
1	11801	0	0
1	11804	0	0
1	11807	0	0
1	11810	0	0
1	11813	0	0
1	11816	0	0
1	11819	0	0
1	11822	0	0
1	11825	0	0
1	11828	0	0
1	11831	0	0
1	11834	0	0
1	11837	0	0
1	11840	0	0
1	11843	0	0
1	11846	0	0
1	11849	0	0
1	11852	0	0
1	11855	0	0
1	11858	0	0
1	11861	0	0
1	11864	0	0
1	11867	0	0
1	11870	0	0
1	11873	0	0
1	11876	0	0
1	11879	0	0
1	11882	0	0
1	11885	0	0
1	11888	0	0
1	11891	0	0
1	11894	0	0
1	11897	0	0
1	11900	0	0
1	11903	0	0
1	11906	0	0
1	11909	0	0
1	11912	0	0
1	11915	0	0
1	11918	0	0
1	11921	0	0
1	11924	0	0
1	11927	0	0
1	11930	0	0
1	11933	0	0
1	11936	0	0
1	11939	0	0
1	11942	0	0
1	11945	0	0
1	11948	0	0
1	11951	0	0
1	11954	0	0
1	11957	0	0
1	11960	0	0
1	11963	0	0
1	11966	0	0
1	11969	0	0
1	11972	0	0
1	11975	0	0
1	11978	0	0
1	11981	0	0
1	11984	0	0
1	11987	0	0
1	11990	0	0
1	11993	0	0
1	11996	0	0
1	11999	0	0
1	12002	0	0
1	12005	0	0
1	12008	0	0
1	12011	0	0
1	12014	0	0
1	12017	0	0
1	12020	0	0
1	12023	0	0
1	12026	0	0
1	12029	0	0
1	12032	0	0
1	12035	0	0
1	12038	0	0
1	12041	0	0
1	12044	0	0
1	12047	0	0
1	12050	0	0
1	12053	0	0
1	12056	0	0
1	12059	0	0
1	12062	0	0
1	12065	0	0
1	12068	0	0
1	12071	0	0
1	12074	0	0
1	12077	0	0
1	12080	0	0
1	12083	0	0
1	12086	0	0
1	12089	0	0
1	12092	0	0
1	12095	0	0
1	12098	0	0
1	12101	0	0
1	12104	0	0
1	12107	0	0
1	12110	0	0
1	12113	0	0
1	12116	0	0
1	12119	0	0
1	12122	0	0
1	12125	0	0
1	12128	0	0
1	12131	0	0
1	12134	0	0
1	12137	0	0
1	12140	0	0
1	12143	0	0
1	12146	0	0
1	12149	0	0
1	12152	0	0
1	12155	0	0
1	12158	0	0
1	12161	0	0
1	12164	0	0
1	12167	0	0
1	12170	0	0
1	12173	0	0
1	12176	0	0
1	12179	0	0
1	12182	0	0
1	12185	0	0
1	12188	0	0
1	12191	0	0
1	12194	0	0
1	12197	0	0
1	12200	0	0
1	12203	0	0
1	12206	0	0
1	12209	0	0
1	12212	0	0
1	12215	0	0
1	12218	0	0
1	12221	0	0
1	12224	0	0
1	12227	0	0
1	12230	0	0
1	12233	0	0
1	12236	0	0
1	12239	0	0
1	12242	0	0
1	12245	0	0
1	12248	0	0
1	12251	0	0
1	12254	0	0
1	12257	0	0
1	12260	0	0
1	12263	0	0
1	12266	0	0
1	12269	0	0
1	12272	0	0
1	12275	0	0
1	12278	0	0
1	12281	0	0
1	12284	0	0
1	12287	0	0
1	12290	0	0
1	12293	0	0
1	12296	0	0
1	12299	0	0
1	12302	0	0
1	12305	0	0
1	12308	0	0
1	12311	0	0
1	12314	0	0
1	12317	0	0
1	12320	0	0
1	12323	0	0
1	12326	0	0
1	12329	0	0
1	12332	0	0
1	12335	0	0
1	12338	0	0
1	12341	0	0
1	12344	0	0
1	12347	0	0
1	12350	0	0
1	12353	0	0
1	12356	0	0
1	12359	0	0
1	12362	0	0
1	12365	0	0
1	12368	0	0
1	12371	0	0
1	12374	0	0
1	12377	0	0
1	12380	0	0
1	12383	0	0
1	12386	0	0
1	12389	0	0
1	12392	0	0
1	12395	0	0
1	12398	0	0
1	12401	0	0
1	12404	0	0
1	12407	0	0
1	12410	0	0
1	12413	0	0
1	12416	0	0
1	12419	0	0
1	12422	0	0
1	12425	0	0
1	12428	0	0
1	12431	0	0
1	12434	0	0
1	12437	0	0
1	12440	0	0
1	12443	0	0
1	12446	0	0
1	12449	0	0
1	12452	0	0
1	12455	0	0
1	12458	0	0
1	12461	0	0
1	12464	0	0
1	12467	0	0
1	12470	0	0
1	12473	0	0
1	12476	0	0
1	12479	0	0
1	12482	0	0
1	12485	0	0
1	12488	0	0
1	12491	0	0
1	12494	0	0
1	12497	0	0
1	12500	0	0
1	12503	0	0
1	12506	0	0
1	12509	0	0
1	12512	0	0
1	12515	0	0
1	12518	0	0
1	12521	0	0
1	12524	0	0
1	12527	0	0
1	12530	0	0
1	12533	0	0
1	12536	0	0
1	12539	0	0
1	12542	0	0
1	12545	0	0
1	12548	0	0
1	12551	0	0
1	12554	0	0
1	12557	0	0
1	12560	0	0
1	12563	0	0
1	12566	0	0
1	12569	0	0
1	12572	0	0
1	12575	0	0
1	12578	0	0
1	12581	0	0
1	12584	0	0
1	12587	0	0
1	12590	0	0
1	12593	0	0
1	12596	0	0
1	12599	0	0
1	12602	0	0
1	12605	0	0
1	12608	0	0
1	12611	0	0
1	12614	0	0
1	12617	0	0
1	12620	0	0
1	12623	0	0
1	12626	0	0
1	12629	0	0
1	12632	0	0
1	12635	0	0
1	12638	0	0
1	12641	0	0
1	12644	0	0
1	12647	0	0
1	12650	0	0
1	12653	0	0
1	12656	0	0
1	12659	0	0
1	12662	0	0
1	12665	0	0
1	12668	0	0
1	12671	0	0
1	12674	0	0
1	12677	0	0
1	12680	0	0
1	12683	0	0
1	12686	0	0
1	12689	0	0
1	12692	0	0
1	12695	0	0
1	12698	0	0
1	12701	0	0
1	12704	0	0
1	12707	0	0
1	12710	0	0
1	12713	0	0
1	12716	0	0
1	12719	0	0
1	12722	0	0
1	12725	0	0
1	12728	0	0
1	12731	0	0
1	12734	0	0
1	12737	0	0
1	12740	0	0
1	12743	0	0
1	12746	0	0
1	12749	0	0
1	12752	0	0
1	12755	0	0
1	12758	0	0
1	12761	0	0
1	12764	0	0
1	12767	0	0
1	12770	0	0
1	12773	0	0
1	12776	0	0
1	12779	0	0
1	12782	0	0
1	12785	0	0
1	12788	0	0
1	12791	0	0
1	12794	0	0
1	12797	0	0
1	12800	0	0
1	12803	0	0
1	12806	0	0
1	12809	0	0
1	12812	0	0
1	12815	0	0
1	12818	0	0
1	12821	0	0
1	12824	0	0
1	12827	0	0
1	12830	0	0
1	12833	0	0
1	12836	0	0
1	12839	0	0
1	12842	0	0
1	12845	0	0
1	12848	0	0
1	12851	0	0
1	12854	0	0
1	12857	0	0
1	12860	0	0
1	12863	0	0
1	12866	0	0
1	12869	0	0
1	12872	0	0
1	12875	0	0
1	12878	0	0
1	12881	0	0
1	12884	0	0
1	12887	0	0
1	12890	0	0
1	12893	0	0
1	12896	0	0
1	12899	0	0
1	12902	0	0
1	12905	0	0
1	12908	0	0
1	12911	0	0
1	12914	0	0
1	12917	0	0
1	12920	0	0
1	12923	0	0
1	12926	0	0
1	12929	0	0
1	12932	0	0
1	12935	0	0
1	12938	0	0
1	12941	0	0
1	12944	0	0
1	12947	0	0
1	12950	0	0
1	12953	0	0
1	12956	0	0
1	12959	0	0
1	12962	0	0
1	12965	0	0
1	12968	0	0
1	12971	0	0
1	12974	0	0
1	12977	0	0
1	12980	0	0
1	12983	0	0
1	12986	0	0
1	12989	0	0
1	12992	0	0
1	12995	0	0
1	12998	0	0
1	13001	0	0
1	13004	0	0
1	13007	0	0
1	13010	0	0
1	13013	0	0
1	13016	0	0
1	13019	0	0
1	13022	0	0
1	13025	0	0
1	13028	0	0
1	13031	0	0
1	13034	0	0
1	13037	0	0
1	13040	0	0
1	13043	0	0
1	13046	0	0
1	13049	0	0
1	13052	0	0
1	13055	0	0
1	13058	0	0
1	13061	0	0
1	13064	0	0
1	13067	0	0
1	13070	0	0
1	13073	0	0
1	13076	0	0
1	13079	0	0
1	13082	0	0
1	13085	0	0
1	13088	0	0
1	13091	0	0
1	13094	0	0
1	13097	0	0
1	13100	0	0
1	13103	0	0
1	13106	0	0
1	13109	0	0
1	13112	0	0
1	13115	0	0
1	13118	0	0
1	13121	0	0
1	13124	0	0
1	13127	0	0
1	13130	0	0
1	13133	0	0
1	13136	0	0
1	13139	0	0
1	13142	0	0
1	13145	0	0
1	13148	0	0
1	13151	0	0
1	13154	0	0
1	13157	0	0
1	13160	0	0
1	13163	0	0
1	13166	0	0
1	13169	0	0
1	13172	0	0
1	13175	0	0
1	13178	0	0
1	13181	0	0
1	13184	0	0
1	13187	0	0
1	13190	0	0
1	13193	0	0
1	13196	0	0
1	13199	0	0
1	13202	0	0
1	13205	0	0
1	13208	0	0
1	13211	0	0
1	13214	0	0
1	13217	0	0
1	13220	0	0
1	13223	0	0
1	13226	0	0
1	13229	0	0
1	13232	0	0
1	13235	0	0
1	13238	0	0
1	13241	0	0
1	13244	0	0
1	13247	0	0
1	13250	0	0
1	13253	0	0
1	13256	0	0
1	13259	0	0
1	13262	0	0
1	13265	0	0
1	13268	0	0
1	13271	0	0
1	13274	0	0
1	13277	0	0
1	13280	0	0
1	13283	0	0
1	13286	0	0
1	13289	0	0
1	13292	0	0
1	13295	0	0
1	13298	0	0
1	13301	0	0
1	13304	0	0
1	13307	0	0
1	13310	0	0
1	13313	0	0
1	13316	0	0
1	13319	0	0
1	13322	0	0
1	13325	0	0
1	13328	0	0
1	13331	0	0
1	13334	0	0
1	13337	0	0
1	13340	0	0
1	13343	0	0
1	13346	0	0
1	13349	0	0
1	13352	0	0
1	13355	0	0
1	13358	0	0
1	13361	0	0
1	13364	0	0
1	13367	0	0
1	13370	0	0
1	13373	0	0
1	13376	0	0
1	13379	0	0
1	13382	0	0
1	13385	0	0
1	13388	0	0
1	13391	0	0
1	13394	0	0
1	13397	0	0
1	13400	0	0
1	13403	0	0
1	13406	0	0
1	13409	0	0
1	13412	0	0
1	13415	0	0
1	13418	0	0
1	13421	0	0
1	13424	0	0
1	13427	0	0
1	13430	0	0
1	13433	0	0
1	13436	0	0
1	13439	0	0
1	13442	0	0
1	13445	0	0
1	13448	0	0
1	13451	0	0
1	13454	0	0
1	13457	0	0
1	13460	0	0
1	13463	0	0
1	13466	0	0
1	13469	0	0
1	13472	0	0
1	13475	0	0
1	13478	0	0
1	13481	0	0
1	13484	0	0
1	13487	0	0
1	13490	0	0
1	13493	0	0
1	13496	0	0
1	13499	0	0
1	13502	0	0
1	13505	0	0
1	13508	0	0
1	13511	0	0
1	13514	0	0
1	13517	0	0
1	13520	0	0
1	13523	0	0
1	13526	0	0
1	13529	0	0
1	13532	0	0
1	13535	0	0
1	13538	0	0
1	13541	0	0
1	13544	0	0
1	13547	0	0
1	13550	0	0
1	13553	0	0
1	13556	0	0
1	13559	0	0
1	13562	0	0
1	13565	0	0
1	13568	0	0
1	13571	0	0
1	13574	0	0
1	13577	0	0
1	13580	0	0
1	13583	0	0
1	13586	0	0
1	13589	0	0
1	13592	0	0
1	13595	0	0
1	13598	0	0
1	13601	0	0
1	13604	0	0
1	13607	0	0
1	13610	0	0
1	13613	0	0
1	13616	0	0
1	13619	0	0
1	13622	0	0
1	13625	0	0
1	13628	0	0
1	13631	0	0
1	13634	0	0
1	13637	0	0
1	13640	0	0
1	13643	0	0
1	13646	0	0
1	13649	0	0
1	13652	0	0
1	13655	0	0
1	13658	0	0
1	13661	0	0
1	13664	0	0
1	13667	0	0
1	13670	0	0
1	13673	0	0
1	13676	0	0
1	13679	0	0
1	13682	0	0
1	13685	0	0
1	13688	0	0
1	13691	0	0
1	13694	0	0
1	13697	0	0
1	13700	0	0
1	13703	0	0
1	13706	0	0
1	13709	0	0
1	13712	0	0
1	13715	0	0
1	13718	0	0
1	13721	0	0
1	13724	0	0
1	13727	0	0
1	13730	0	0
1	13733	0	0
1	13736	0	0
1	13739	0	0
1	13742	0	0
1	13745	0	0
1	13748	0	0
1	13751	0	0
1	13754	0	0
1	13757	0	0
1	13760	0	0
1	13763	0	0
1	13766	0	0
1	13769	0	0
1	13772	0	0
1	13775	0	0
1	13778	0	0
1	13781	0	0
1	13784	0	0
1	13787	0	0
1	13790	0	0
1	13793	0	0
1	13796	0	0
1	13799	0	0
1	13802	0	0
1	13805	0	0
1	13808	0	0
1	13811	0	0
1	13814	0	0
1	13817	0	0
1	13820	0	0
1	13823	0	0
1	13826	0	0
1	13829	0	0
1	13832	0	0
1	13835	0	0
1	13838	0	0
1	13841	0	0
1	13844	0	0
1	13847	0	0
1	13850	0	0
1	13853	0	0
1	13856	0	0
1	13859	0	0
1	13862	0	0
1	13865	0	0
1	13868	0	0
1	13871	0	0
1	13874	0	0
1	13877	0	0
1	13880	0	0
1	13883	0	0
1	13886	0	0
1	13889	0	0
1	13892	0	0
1	13895	0	0
1	13898	0	0
1	13901	0	0
1	13904	0	0
1	13907	0	0
1	13910	0	0
1	13913	0	0
1	13916	0	0
1	13919	0	0
1	13922	0	0
1	13925	0	0
1	13928	0	0
1	13931	0	0
1	13934	0	0
1	13937	0	0
1	13940	0	0
1	13943	0	0
1	13946	0	0
1	13949	0	0
1	13952	0	0
1	13955	0	0
1	13958	0	0
1	13961	0	0
1	13964	0	0
1	13967	0	0
1	13970	0	0
1	13973	0	0
1	13976	0	0
1	13979	0	0
1	13982	0	0
1	13985	0	0
1	13988	0	0
1	13991	0	0
1	13994	0	0
1	13997	0	0
1	14000	0	0
1	14003	0	0
1	14006	0	0
1	14009	0	0
1	14012	0	0
1	14015	0	0
1	14018	0	0
1	14021	0	0
1	14024	0	0
1	14027	0	0
1	14030	0	0
1	14033	0	0
1	14036	0	0
1	14039	0	0
1	14042	0	0
1	14045	0	0
1	14048	0	0
1	14051	0	0
1	14054	0	0
1	14057	0	0
1	14060	0	0
1	14063	0	0
1	14066	0	0
1	14069	0	0
1	14072	0	0
1	14075	0	0
1	14078	0	0
1	14081	0	0
1	14084	0	0
1	14087	0	0
1	14090	0	0
1	14093	0	0
1	14096	0	0
1	14099	0	0
1	14102	0	0
1	14105	0	0
1	14108	0	0
1	14111	0	0
1	14114	0	0
1	14117	0	0
1	14120	0	0
1	14123	0	0
1	14126	0	0
1	14129	0	0
1	14132	0	0
1	14135	0	0
1	14138	0	0
1	14141	0	0
1	14144	0	0
1	14147	0	0
1	14150	0	0
1	14153	0	0
1	14156	0	0
1	14159	0	0
1	14162	0	0
1	14165	0	0
1	14168	0	0
1	14171	0	0
1	14174	0	0
1	14177	0	0
1	14180	0	0
1	14183	0	0
1	14186	0	0
1	14189	0	0
1	14192	0	0
1	14195	0	0
1	14198	0	0
1	14201	0	0
1	14204	0	0
1	14207	0	0
1	14210	0	0
1	14213	0	0
1	14216	0	0
1	14219	0	0
1	14222	0	0
1	14225	0	0
1	14228	0	0
1	14231	0	0
1	14234	0	0
1	14237	0	0
1	14240	0	0
1	14243	0	0
1	14246	0	0
1	14249	0	0
1	14252	0	0
1	14255	0	0
1	14258	0	0
1	14261	0	0
1	14264	0	0
1	14267	0	0
1	14270	0	0
1	14273	0	0
1	14276	0	0
1	14279	0	0
1	14282	0	0
1	14285	0	0
1	14288	0	0
1	14291	0	0
1	14294	0	0
1	14297	0	0
1	14300	0	0
1	14303	0	0
1	14306	0	0
1	14309	0	0
1	14312	0	0
1	14315	0	0
1	14318	0	0
1	14321	0	0
1	14324	0	0
1	14327	0	0
1	14330	0	0
1	14333	0	0
1	14336	0	0
1	14339	0	0
1	14342	0	0
1	14345	0	0
1	14348	0	0
1	14351	0	0
1	14354	0	0
1	14357	0	0
1	14360	0	0
1	14363	0	0
1	14366	0	0
1	14369	0	0
1	14372	0	0
1	14375	0	0
1	14378	0	0
1	14381	0	0
1	14384	0	0
1	14387	0	0
1	14390	0	0
1	14393	0	0
1	14396	0	0
1	14399	0	0
1	14402	0	0
1	14405	0	0
1	14408	0	0
1	14411	0	0
1	14414	0	0
1	14417	0	0
1	14420	0	0
1	14423	0	0
1	14426	0	0
1	14429	0	0
1	14432	0	0
1	14435	0	0
1	14438	0	0
1	14441	0	0
1	14444	0	0
1	14447	0	0
1	14450	0	0
1	14453	0	0
1	14456	0	0
1	14459	0	0
1	14462	0	0
1	14465	0	0
1	14468	0	0
1	14471	0	0
1	14474	0	0
1	14477	0	0
1	14480	0	0
1	14483	0	0
1	14486	0	0
1	14489	0	0
1	14492	0	0
1	14495	0	0
1	14498	0	0
1	14501	0	0
1	14504	0	0
1	14507	0	0
1	14510	0	0
1	14513	0	0
1	14516	0	0
1	14519	0	0
1	14522	0	0
1	14525	0	0
1	14528	0	0
1	14531	0	0
1	14534	0	0
1	14537	0	0
1	14540	0	0
1	14543	0	0
1	14546	0	0
1	14549	0	0
1	14552	0	0
1	14555	0	0
1	14558	0	0
1	14561	0	0
1	14564	0	0
1	14567	0	0
1	14570	0	0
1	14573	0	0
1	14576	0	0
1	14579	0	0
1	14582	0	0
1	14585	0	0
1	14588	0	0
1	14591	0	0
1	14594	0	0
1	14597	0	0
1	14600	0	0
1	14603	0	0
1	14606	0	0
1	14609	0	0
1	14612	0	0
1	14615	0	0
1	14618	0	0
1	14621	0	0
1	14624	0	0
1	14627	0	0
1	14630	0	0
1	14633	0	0
1	14636	0	0
1	14639	0	0
1	14642	0	0
1	14645	0	0
1	14648	0	0
1	14651	0	0
1	14654	0	0
1	14657	0	0
1	14660	0	0
1	14663	0	0
1	14666	0	0
1	14669	0	0
1	14672	0	0
1	14675	0	0
1	14678	0	0
1	14681	0	0
1	14684	0	0
1	14687	0	0
1	14690	0	0
1	14693	0	0
1	14696	0	0
1	14699	0	0
1	14702	0	0
1	14705	0	0
1	14708	0	0
1	14711	0	0
1	14714	0	0
1	14717	0	0
1	14720	0	0
1	14723	0	0
1	14726	0	0
1	14729	0	0
1	14732	0	0
1	14735	0	0
1	14738	0	0
1	14741	0	0
1	14744	0	0
1	14747	0	0
1	14750	0	0
1	14753	0	0
1	14756	0	0
1	14759	0	0
1	14762	0	0
1	14765	0	0
1	14768	0	0
1	14771	0	0
1	14774	0	0
1	14777	0	0
1	14780	0	0
1	14783	0	0
1	14786	0	0
1	14789	0	0
1	14792	0	0
1	14795	0	0
1	14798	0	0
1	14801	0	0
1	14804	0	0
1	14807	0	0
1	14810	0	0
1	14813	0	0
1	14816	0	0
1	14819	0	0
1	14822	0	0
1	14825	0	0
1	14828	0	0
1	14831	0	0
1	14834	0	0
1	14837	0	0
1	14840	0	0
1	14843	0	0
1	14846	0	0
1	14849	0	0
1	14852	0	0
1	14855	0	0
1	14858	0	0
1	14861	0	0
1	14864	0	0
1	14867	0	0
1	14870	0	0
1	14873	0	0
1	14876	0	0
1	14879	0	0
1	14882	0	0
1	14885	0	0
1	14888	0	0
1	14891	0	0
1	14894	0	0
1	14897	0	0
1	14900	0	0
1	14903	0	0
1	14906	0	0
1	14909	0	0
1	14912	0	0
1	14915	0	0
1	14918	0	0
1	14921	0	0
1	14924	0	0
1	14927	0	0
1	14930	0	0
1	14933	0	0
1	14936	0	0
1	14939	0	0
1	14942	0	0
1	14945	0	0
1	14948	0	0
1	14951	0	0
1	14954	0	0
1	14957	0	0
1	14960	0	0
1	14963	0	0
1	14966	0	0
1	14969	0	0
1	14972	0	0
1	14975	0	0
1	14978	0	0
1	14981	0	0
1	14984	0	0
1	14987	0	0
1	14990	0	0
1	14993	0	0
1	14996	0	0
1	14999	0	0
1	15002	0	0
1	15005	0	0
1	15008	0	0
1	15011	0	0
1	15014	0	0
1	15017	0	0
1	15020	0	0
1	15023	0	0
1	15026	0	0
1	15029	0	0
1	15032	0	0
1	15035	0	0
1	15038	0	0
1	15041	0	0
1	15044	0	0
1	15047	0	0
1	15050	0	0
1	15053	0	0
1	15056	0	0
1	15059	0	0
1	15062	0	0
1	15065	0	0
1	15068	0	0
1	15071	0	0
1	15074	0	0
1	15077	0	0
1	15080	0	0
1	15083	0	0
1	15086	0	0
1	15089	0	0
1	15092	0	0
1	15095	0	0
1	15098	0	0
1	15101	0	0
1	15104	0	0
1	15107	0	0
1	15110	0	0
1	15113	0	0
1	15116	0	0
1	15119	0	0
1	15122	0	0
1	15125	0	0
1	15128	0	0
1	15131	0	0
1	15134	0	0
1	15137	0	0
1	15140	0	0
1	15143	0	0
1	15146	0	0
1	15149	0	0
1	15152	0	0
1	15155	0	0
1	15158	0	0
1	15161	0	0
1	15164	0	0
1	15167	0	0
1	15170	0	0
1	15173	0	0
1	15176	0	0
1	15179	0	0
1	15182	0	0
1	15185	0	0
1	15188	0	0
1	15191	0	0
1	15194	0	0
1	15197	0	0
1	15200	0	0
1	15203	0	0
1	15206	0	0
1	15209	0	0
1	15212	0	0
1	15215	0	0
1	15218	0	0
1	15221	0	0
1	15224	0	0
1	15227	0	0
1	15230	0	0
1	15233	0	0
1	15236	0	0
1	15239	0	0
1	15242	0	0
1	15245	0	0
1	15248	0	0
1	15251	0	0
1	15254	0	0
1	15257	0	0
1	15260	0	0
1	15263	0	0
1	15266	0	0
1	15269	0	0
1	15272	0	0
1	15275	0	0
1	15278	0	0
1	15281	0	0
1	15284	0	0
1	15287	0	0
1	15290	0	0
1	15293	0	0
1	15296	0	0
1	15299	0	0
1	15302	0	0
1	15305	0	0
1	15308	0	0
1	15311	0	0
1	15314	0	0
1	15317	0	0
1	15320	0	0
1	15323	0	0
1	15326	0	0
1	15329	0	0
1	15332	0	0
1	15335	0	0
1	15338	0	0
1	15341	0	0
1	15344	0	0
1	15347	0	0
1	15350	0	0
1	15353	0	0
1	15356	0	0
1	15359	0	0
1	15362	0	0
1	15365	0	0
1	15368	0	0
1	15371	0	0
1	15374	0	0
1	15377	0	0
1	15380	0	0
1	15383	0	0
1	15386	0	0
1	15389	0	0
1	15392	0	0
1	15395	0	0
1	15398	0	0
1	15401	0	0
1	15404	0	0
1	15407	0	0
1	15410	0	0
1	15413	0	0
1	15416	0	0
1	15419	0	0
1	15422	0	0
1	15425	0	0
1	15428	0	0
1	15431	0	0
1	15434	0	0
1	15437	0	0
1	15440	0	0
1	15443	0	0
1	15446	0	0
1	15449	0	0
1	15452	0	0
1	15455	0	0
1	15458	0	0
1	15461	0	0
1	15464	0	0
1	15467	0	0
1	15470	0	0
1	15473	0	0
1	15476	0	0
1	15479	0	0
1	15482	0	0
1	15485	0	0
1	15488	0	0
1	15491	0	0
1	15494	0	0
1	15497	0	0
1	15500	0	0
1	15503	0	0
1	15506	0	0
1	15509	0	0
1	15512	0	0
1	15515	0	0
1	15518	0	0
1	15521	0	0
1	15524	0	0
1	15527	0	0
1	15530	0	0
1	15533	0	0
1	15536	0	0
1	15539	0	0
1	15542	0	0
1	15545	0	0
1	15548	0	0
1	15551	0	0
1	15554	0	0
1	15557	0	0
1	15560	0	0
1	15563	0	0
1	15566	0	0
1	15569	0	0
1	15572	0	0
1	15575	0	0
1	15578	0	0
1	15581	0	0
1	15584	0	0
1	15587	0	0
1	15590	0	0
1	15593	0	0
1	15596	0	0
1	15599	0	0
1	15602	0	0
1	15605	0	0
1	15608	0	0
1	15611	0	0
1	15614	0	0
1	15617	0	0
1	15620	0	0
1	15623	0	0
1	15626	0	0
1	15629	0	0
1	15632	0	0
1	15635	0	0
1	15638	0	0
1	15641	0	0
1	15644	0	0
1	15647	0	0
1	15650	0	0
1	15653	0	0
1	15656	0	0
1	15659	0	0
1	15662	0	0
1	15665	0	0
1	15668	0	0
1	15671	0	0
1	15674	0	0
1	15677	0	0
1	15680	0	0
1	15683	0	0
1	15686	0	0
1	15689	0	0
1	15692	0	0
1	15695	0	0
1	15698	0	0
1	15701	0	0
1	15704	0	0
1	15707	0	0
1	15710	0	0
1	15713	0	0
1	15716	0	0
1	15719	0	0
1	15722	0	0
1	15725	0	0
1	15728	0	0
1	15731	0	0
1	15734	0	0
1	15737	0	0
1	15740	0	0
1	15743	0	0
1	15746	0	0
1	15749	0	0
1	15752	0	0
1	15755	0	0
1	15758	0	0
1	15761	0	0
1	15764	0	0
1	15767	0	0
1	15770	0	0
1	15773	0	0
1	15776	0	0
1	15779	0	0
1	15782	0	0
1	15785	0	0
1	15788	0	0
1	15791	0	0
1	15794	0	0
1	15797	0	0
1	15800	0	0
1	15803	0	0
1	15806	0	0
1	15809	0	0
1	15812	0	0
1	15815	0	0
1	15818	0	0
1	15821	0	0
1	15824	0	0
1	15827	0	0
1	15830	0	0
1	15833	0	0
1	15836	0	0
1	15839	0	0
1	15842	0	0
1	15845	0	0
1	15848	0	0
1	15851	0	0
1	15854	0	0
1	15857	0	0
1	15860	0	0
1	15863	0	0
1	15866	0	0
1	15869	0	0
1	15872	0	0
1	15875	0	0
1	15878	0	0
1	15881	0	0
1	15884	0	0
1	15887	0	0
1	15890	0	0
1	15893	0	0
1	15896	0	0
1	15899	0	0
1	15902	0	0
1	15905	0	0
1	15908	0	0
1	15911	0	0
1	15914	0	0
1	15917	0	0
1	15920	0	0
1	15923	0	0
1	15926	0	0
1	15929	0	0
1	15932	0	0
1	15935	0	0
1	15938	0	0
1	15941	0	0
1	15944	0	0
1	15947	0	0
1	15950	0	0
1	15953	0	0
1	15956	0	0
1	15959	0	0
1	15962	0	0
1	15965	0	0
1	15968	0	0
1	15971	0	0
1	15974	0	0
1	15977	0	0
1	15980	0	0
1	15983	0	0
1	15986	0	0
1	15989	0	0
1	15992	0	0
1	15995	0	0
1	15998	0	0
1	16001	0	0
1	16004	0	0
1	16007	0	0
1	16010	0	0
1	16013	0	0
1	16016	0	0
1	16019	0	0
1	16022	0	0
1	16025	0	0
1	16028	0	0
1	16031	0	0
1	16034	0	0
1	16037	0	0
1	16040	0	0
1	16043	0	0
1	16046	0	0
1	16049	0	0
1	16052	0	0
1	16055	0	0
1	16058	0	0
1	16061	0	0
1	16064	0	0
1	16067	0	0
1	16070	0	0
1	16073	0	0
1	16076	0	0
1	16079	0	0
1	16082	0	0
1	16085	0	0
1	16088	0	0
1	16091	0	0
1	16094	0	0
1	16097	0	0
1	16100	0	0
1	16103	0	0
1	16106	0	0
1	16109	0	0
1	16112	0	0
1	16115	0	0
1	16118	0	0
1	16121	0	0
1	16124	0	0
1	16127	0	0
1	16130	0	0
1	16133	0	0
1	16136	0	0
1	16139	0	0
1	16142	0	0
1	16145	0	0
1	16148	0	0
1	16151	0	0
1	16154	0	0
1	16157	0	0
1	16160	0	0
1	16163	0	0
1	16166	0	0
1	16169	0	0
1	16172	0	0
1	16175	0	0
1	16178	0	0
1	16181	0	0
1	16184	0	0
1	16187	0	0
1	16190	0	0
1	16193	0	0
1	16196	0	0
1	16199	0	0
1	16202	0	0
1	16205	0	0
1	16208	0	0
1	16211	0	0
1	16214	0	0
1	16217	0	0
1	16220	0	0
1	16223	0	0
1	16226	0	0
1	16229	0	0
1	16232	0	0
1	16235	0	0
1	16238	0	0
1	16241	0	0
1	16244	0	0
1	16247	0	0
1	16250	0	0
1	16253	0	0
1	16256	0	0
1	16259	0	0
1	16262	0	0
1	16265	0	0
1	16268	0	0
1	16271	0	0
1	16274	0	0
1	16277	0	0
1	16280	0	0
1	16283	0	0
1	16286	0	0
1	16289	0	0
1	16292	0	0
1	16295	0	0
1	16298	0	0
1	16301	0	0
1	16304	0	0
1	16307	0	0
1	16310	0	0
1	16313	0	0
1	16316	0	0
1	16319	0	0
1	16322	0	0
1	16325	0	0
1	16328	0	0
1	16331	0	0
1	16334	0	0
1	16337	0	0
1	16340	0	0
1	16343	0	0
1	16346	0	0
1	16349	0	0
1	16352	0	0
1	16355	0	0
1	16358	0	0
1	16361	0	0
1	16364	0	0
1	16367	0	0
1	16370	0	0
1	16373	0	0
1	16376	0	0
1	16379	0	0
1	16382	0	0
1	16385	0	0
1	16388	0	0
1	16391	0	0
1	16394	0	0
1	16397	0	0
1	16400	0	0
1	16403	0	0
1	16406	0	0
1	16409	0	0
1	16412	0	0
1	16415	0	0
1	16418	0	0
1	16421	0	0
1	16424	0	0
1	16427	0	0
1	16430	0	0
1	16433	0	0
1	16436	0	0
1	16439	0	0
1	16442	0	0
1	16445	0	0
1	16448	0	0
1	16451	0	0
1	16454	0	0
1	16457	0	0
1	16460	0	0
1	16463	0	0
1	16466	0	0
1	16469	0	0
1	16472	0	0
1	16475	0	0
1	16478	0	0
1	16481	0	0
1	16484	0	0
1	16487	0	0
1	16490	0	0
1	16493	0	0
1	16496	0	0
1	16499	0	0
1	16502	0	0
1	16505	0	0
1	16508	0	0
1	16511	0	0
1	16514	0	0
1	16517	0	0
1	16520	0	0
1	16523	0	0
1	16526	0	0
1	16529	0	0
1	16532	0	0
1	16535	0	0
1	16538	0	0
1	16541	0	0
1	16544	0	0
1	16547	0	0
1	16550	0	0
1	16553	0	0
1	16556	0	0
1	16559	0	0
1	16562	0	0
1	16565	0	0
1	16568	0	0
1	16571	0	0
1	16574	0	0
1	16577	0	0
1	16580	0	0
1	16583	0	0
1	16586	0	0
1	16589	0	0
1	16592	0	0
1	16595	0	0
1	16598	0	0
1	16601	0	0
1	16604	0	0
1	16607	0	0
1	16610	0	0
1	16613	0	0
1	16616	0	0
1	16619	0	0
1	16622	0	0
1	16625	0	0
1	16628	0	0
1	16631	0	0
1	16634	0	0
1	16637	0	0
1	16640	0	0
1	16643	0	0
1	16646	0	0
1	16649	0	0
1	16652	0	0
1	16655	0	0
1	16658	0	0
1	16661	0	0
1	16664	0	0
1	16667	0	0
1	16670	0	0
1	16673	0	0
1	16676	0	0
1	16679	0	0
1	16682	0	0
1	16685	0	0
1	16688	0	0
1	16691	0	0
1	16694	0	0
1	16697	0	0
1	16700	0	0
1	16703	0	0
1	16706	0	0
1	16709	0	0
1	16712	0	0
1	16715	0	0
1	16718	0	0
1	16721	0	0
1	16724	0	0
1	16727	0	0
1	16730	0	0
1	16733	0	0
1	16736	0	0
1	16739	0	0
1	16742	0	0
1	16745	0	0
1	16748	0	0
1	16751	0	0
1	16754	0	0
1	16757	0	0
1	16760	0	0
1	16763	0	0
1	16766	0	0
1	16769	0	0
1	16772	0	0
1	16775	0	0
1	16778	0	0
1	16781	0	0
1	16784	0	0
1	16787	0	0
1	16790	0	0
1	16793	0	0
1	16796	0	0
1	16799	0	0
1	16802	0	0
1	16805	0	0
1	16808	0	0
1	16811	0	0
1	16814	0	0
1	16817	0	0
1	16820	0	0
1	16823	0	0
1	16826	0	0
1	16829	0	0
1	16832	0	0
1	16835	0	0
1	16838	0	0
1	16841	0	0
1	16844	0	0
1	16847	0	0
1	16850	0	0
1	16853	0	0
1	16856	0	0
1	16859	0	0
1	16862	0	0
1	16865	0	0
1	16868	0	0
1	16871	0	0
1	16874	0	0
1	16877	0	0
1	16880	0	0
1	16883	0	0
1	16886	0	0
1	16889	0	0
1	16892	0	0
1	16895	0	0
1	16898	0	0
1	16901	0	0
1	16904	0	0
1	16907	0	0
1	16910	0	0
1	16913	0	0
1	16916	0	0
1	16919	0	0
1	16922	0	0
1	16925	0	0
1	16928	0	0
1	16931	0	0
1	16934	0	0
1	16937	0	0
1	16940	0	0
1	16943	0	0
1	16946	0	0
1	16949	0	0
1	16952	0	0
1	16955	0	0
1	16958	0	0
1	16961	0	0
1	16964	0	0
1	16967	0	0
1	16970	0	0
1	16973	0	0
1	16976	0	0
1	16979	0	0
1	16982	0	0
1	16985	0	0
1	16988	0	0
1	16991	0	0
1	16994	0	0
1	16997	0	0
1	17000	0	0
1	17003	0	0
1	17006	0	0
1	17009	0	0
1	17012	0	0
1	17015	0	0
1	17018	0	0
1	17021	0	0
1	17024	0	0
1	17027	0	0
1	17030	0	0
1	17033	0	0
1	17036	0	0
1	17039	0	0
1	17042	0	0
1	17045	0	0
1	17048	0	0
1	17051	0	0
1	17054	0	0
1	17057	0	0
1	17060	0	0
1	17063	0	0
1	17066	0	0
1	17069	0	0
1	17072	0	0
1	17075	0	0
1	17078	0	0
1	17081	0	0
1	17084	0	0
1	17087	0	0
1	17090	0	0
1	17093	0	0
1	17096	0	0
1	17099	0	0
1	17102	0	0
1	17105	0	0
1	17108	0	0
1	17111	0	0
1	17114	0	0
1	17117	0	0
1	17120	0	0
1	17123	0	0
1	17126	0	0
1	17129	0	0
1	17132	0	0
1	17135	0	0
1	17138	0	0
1	17141	0	0
1	17144	0	0
1	17147	0	0
1	17150	0	0
1	17153	0	0
1	17156	0	0
1	17159	0	0
1	17162	0	0
1	17165	0	0
1	17168	0	0
1	17171	0	0
1	17174	0	0
1	17177	0	0
1	17180	0	0
1	17183	0	0
1	17186	0	0
1	17189	0	0
1	17192	0	0
1	17195	0	0
1	17198	0	0
1	17201	0	0
1	17204	0	0
1	17207	0	0
1	17210	0	0
1	17213	0	0
1	17216	0	0
1	17219	0	0
1	17222	0	0
1	17225	0	0
1	17228	0	0
1	17231	0	0
1	17234	0	0
1	17237	0	0
1	17240	0	0
1	17243	0	0
1	17246	0	0
1	17249	0	0
1	17252	0	0
1	17255	0	0
1	17258	0	0
1	17261	0	0
1	17264	0	0
1	17267	0	0
1	17270	0	0
1	17273	0	0
1	17276	0	0
1	17279	0	0
1	17282	0	0
1	17285	0	0
1	17288	0	0
1	17291	0	0
1	17294	0	0
1	17297	0	0
1	17300	0	0
1	17303	0	0
1	17306	0	0
1	17309	0	0
1	17312	0	0
1	17315	0	0
1	17318	0	0
1	17321	0	0
1	17324	0	0
1	17327	0	0
1	17330	0	0
1	17333	0	0
1	17336	0	0
1	17339	0	0
1	17342	0	0
1	17345	0	0
1	17348	0	0
1	17351	0	0
1	17354	0	0
1	17357	0	0
1	17360	0	0
1	17363	0	0
1	17366	0	0
1	17369	0	0
1	17372	0	0
1	17375	0	0
1	17378	0	0
1	17381	0	0
1	17384	0	0
1	17387	0	0
1	17390	0	0
1	17393	0	0
1	17396	0	0
1	17399	0	0
1	17402	0	0
1	17405	0	0
1	17408	0	0
1	17411	0	0
1	17414	0	0
1	17417	0	0
1	17420	0	0
1	17423	0	0
1	17426	0	0
1	17429	0	0
1	17432	0	0
1	17435	0	0
1	17438	0	0
1	17441	0	0
1	17444	0	0
1	17447	0	0
1	17450	0	0
1	17453	0	0
1	17456	0	0
1	17459	0	0
1	17462	0	0
1	17465	0	0
1	17468	0	0
1	17471	0	0
1	17474	0	0
1	17477	0	0
1	17480	0	0
1	17483	0	0
1	17486	0	0
1	17489	0	0
1	17492	0	0
1	17495	0	0
1	17498	0	0
1	17501	0	0
1	17504	0	0
1	17507	0	0
1	17510	0	0
1	17513	0	0
1	17516	0	0
1	17519	0	0
1	17522	0	0
1	17525	0	0
1	17528	0	0
1	17531	0	0
1	17534	0	0
1	17537	0	0
1	17540	0	0
1	17543	0	0
1	17546	0	0
1	17549	0	0
1	17552	0	0
1	17555	0	0
1	17558	0	0
1	17561	0	0
1	17564	0	0
1	17567	0	0
1	17570	0	0
1	17573	0	0
1	17576	0	0
1	17579	0	0
1	17582	0	0
1	17585	0	0
1	17588	0	0
1	17591	0	0
1	17594	0	0
1	17597	0	0
1	17600	0	0
1	17603	0	0
1	17606	0	0
1	17609	0	0
1	17612	0	0
1	17615	0	0
1	17618	0	0
1	17621	0	0
1	17624	0	0
1	17627	0	0
1	17630	0	0
1	17633	0	0
1	17636	0	0
1	17639	0	0
1	17642	0	0
1	17645	0	0
1	17648	0	0
1	17651	0	0
1	17654	0	0
1	17657	0	0
1	17660	0	0
1	17663	0	0
1	17666	0	0
1	17669	0	0
1	17672	0	0
1	17675	0	0
1	17678	0	0
1	17681	0	0
1	17684	0	0
1	17687	0	0
1	17690	0	0
1	17693	0	0
1	17696	0	0
1	17699	0	0
1	17702	0	0
1	17705	0	0
1	17708	0	0
1	17711	0	0
1	17714	0	0
1	17717	0	0
1	17720	0	0
1	17723	0	0
1	17726	0	0
1	17729	0	0
1	17732	0	0
1	17735	0	0
1	17738	0	0
1	17741	0	0
1	17744	0	0
1	17747	0	0
1	17750	0	0
1	17753	0	0
1	17756	0	0
1	17759	0	0
1	17762	0	0
1	17765	0	0
1	17768	0	0
1	17771	0	0
1	17774	0	0
1	17777	0	0
1	17780	0	0
1	17783	0	0
1	17786	0	0
1	17789	0	0
1	17792	0	0
1	17795	0	0
1	17798	0	0
1	17801	0	0
1	17804	0	0
1	17807	0	0
1	17810	0	0
1	17813	0	0
1	17816	0	0
1	17819	0	0
1	17822	0	0
1	17825	0	0
1	17828	0	0
1	17831	0	0
1	17834	0	0
1	17837	0	0
1	17840	0	0
1	17843	0	0
1	17846	0	0
1	17849	0	0
1	17852	0	0
1	17855	0	0
1	17858	0	0
1	17861	0	0
1	17864	0	0
1	17867	0	0
1	17870	0	0
1	17873	0	0
1	17876	0	0
1	17879	0	0
1	17882	0	0
1	17885	0	0
1	17888	0	0
1	17891	0	0
1	17894	0	0
1	17897	0	0
1	17900	0	0
1	17903	0	0
1	17906	0	0
1	17909	0	0
1	17912	0	0
1	17915	0	0
1	17918	0	0
1	17921	0	0
1	17924	0	0
1	17927	0	0
1	17930	0	0
1	17933	0	0
1	17936	0	0
1	17939	0	0
1	17942	0	0
1	17945	0	0
1	17948	0	0
1	17951	0	0
1	17954	0	0
1	17957	0	0
1	17960	0	0
1	17963	0	0
1	17966	0	0
1	17969	0	0
1	17972	0	0
1	17975	0	0
1	17978	0	0
1	17981	0	0
1	17984	0	0
1	17987	0	0
1	17990	0	0
1	17993	0	0
1	17996	0	0
1	17999	0	0
1	18002	0	0
1	18005	0	0
1	18008	0	0
1	18011	0	0
1	18014	0	0
1	18017	0	0
1	18020	0	0
1	18023	0	0
1	18026	0	0
1	18029	0	0
1	18032	0	0
1	18035	0	0
1	18038	0	0
1	18041	0	0
1	18044	0	0
1	18047	0	0
1	18050	0	0
1	18053	0	0
1	18056	0	0
1	18059	0	0
1	18062	0	0
1	18065	0	0
1	18068	0	0
1	18071	0	0
1	18074	0	0
1	18077	0	0
1	18080	0	0
1	18083	0	0
1	18086	0	0
1	18089	0	0
1	18092	0	0
1	18095	0	0
1	18098	0	0
1	18101	0	0
1	18104	0	0
1	18107	0	0
1	18110	0	0
1	18113	0	0
1	18116	0	0
1	18119	0	0
1	18122	0	0
1	18125	0	0
1	18128	0	0
1	18131	0	0
1	18134	0	0
1	18137	0	0
1	18140	0	0
1	18143	0	0
1	18146	0	0
1	18149	0	0
1	18152	0	0
1	18155	0	0
1	18158	0	0
1	18161	0	0
1	18164	0	0
1	18167	0	0
1	18170	0	0
1	18173	0	0
1	18176	0	0
1	18179	0	0
1	18182	0	0
1	18185	0	0
1	18188	0	0
1	18191	0	0
1	18194	0	0
1	18197	0	0
1	18200	0	0
1	18203	0	0
1	18206	0	0
1	18209	0	0
1	18212	0	0
1	18215	0	0
1	18218	0	0
1	18221	0	0
1	18224	0	0
1	18227	0	0
1	18230	0	0
1	18233	0	0
1	18236	0	0
1	18239	0	0
1	18242	0	0
1	18245	0	0
1	18248	0	0
1	18251	0	0
1	18254	0	0
1	18257	0	0
1	18260	0	0
1	18263	0	0
1	18266	0	0
1	18269	0	0
1	18272	0	0
1	18275	0	0
1	18278	0	0
1	18281	0	0
1	18284	0	0
1	18287	0	0
1	18290	0	0
1	18293	0	0
1	18296	0	0
1	18299	0	0
1	18302	0	0
1	18305	0	0
1	18308	0	0
1	18311	0	0
1	18314	0	0
1	18317	0	0
1	18320	0	0
1	18323	0	0
1	18326	0	0
1	18329	0	0
1	18332	0	0
1	18335	0	0
1	18338	0	0
1	18341	0	0
1	18344	0	0
1	18347	0	0
1	18350	0	0
1	18353	0	0
1	18356	0	0
1	18359	0	0
1	18362	0	0
1	18365	0	0
1	18368	0	0
1	18371	0	0
1	18374	0	0
1	18377	0	0
1	18380	0	0
1	18383	0	0
1	18386	0	0
1	18389	0	0
1	18392	0	0
1	18395	0	0
1	18398	0	0
1	18401	0	0
1	18404	0	0
1	18407	0	0
1	18410	0	0
1	18413	0	0
1	18416	0	0
1	18419	0	0
1	18422	0	0
1	18425	0	0
1	18428	0	0
1	18431	0	0
1	18434	0	0
1	18437	0	0
1	18440	0	0
1	18443	0	0
1	18446	0	0
1	18449	0	0
1	18452	0	0
1	18455	0	0
1	18458	0	0
1	18461	0	0
1	18464	0	0
1	18467	0	0
1	18470	0	0
1	18473	0	0
1	18476	0	0
1	18479	0	0
1	18482	0	0
1	18485	0	0
1	18488	0	0
1	18491	0	0
1	18494	0	0
1	18497	0	0
1	18500	0	0
1	18503	0	0
1	18506	0	0
1	18509	0	0
1	18512	0	0
1	18515	0	0
1	18518	0	0
1	18521	0	0
1	18524	0	0
1	18527	0	0
1	18530	0	0
1	18533	0	0
1	18536	0	0
1	18539	0	0
1	18542	0	0
1	18545	0	0
1	18548	0	0
1	18551	0	0
1	18554	0	0
1	18557	0	0
1	18560	0	0
1	18563	0	0
1	18566	0	0
1	18569	0	0
1	18572	0	0
1	18575	0	0
1	18578	0	0
1	18581	0	0
1	18584	0	0
1	18587	0	0
1	18590	0	0
1	18593	0	0
1	18596	0	0
1	18599	0	0
1	18602	0	0
1	18605	0	0
1	18608	0	0
1	18611	0	0
1	18614	0	0
1	18617	0	0
1	18620	0	0
1	18623	0	0
1	18626	0	0
1	18629	0	0
1	18632	0	0
1	18635	0	0
1	18638	0	0
1	18641	0	0
1	18644	0	0
1	18647	0	0
1	18650	0	0
1	18653	0	0
1	18656	0	0
1	18659	0	0
1	18662	0	0
1	18665	0	0
1	18668	0	0
1	18671	0	0
1	18674	0	0
1	18677	0	0
1	18680	0	0
1	18683	0	0
1	18686	0	0
1	18689	0	0
1	18692	0	0
1	18695	0	0
1	18698	0	0
1	18701	0	0
1	18704	0	0
1	18707	0	0
1	18710	0	0
1	18713	0	0
1	18716	0	0
1	18719	0	0
1	18722	0	0
1	18725	0	0
1	18728	0	0
1	18731	0	0
1	18734	0	0
1	18737	0	0
1	18740	0	0
1	18743	0	0
1	18746	0	0
1	18749	0	0
1	18752	0	0
1	18755	0	0
1	18758	0	0
1	18761	0	0
1	18764	0	0
1	18767	0	0
1	18770	0	0
1	18773	0	0
1	18776	0	0
1	18779	0	0
1	18782	0	0
1	18785	0	0
1	18788	0	0
1	18791	0	0
1	18794	0	0
1	18797	0	0
1	18800	0	0
1	18803	0	0
1	18806	0	0
1	18809	0	0
1	18812	0	0
1	18815	0	0
1	18818	0	0
1	18821	0	0
1	18824	0	0
1	18827	0	0
1	18830	0	0
1	18833	0	0
1	18836	0	0
1	18839	0	0
1	18842	0	0
1	18845	0	0
1	18848	0	0
1	18851	0	0
1	18854	0	0
1	18857	0	0
1	18860	0	0
1	18863	0	0
1	18866	0	0
1	18869	0	0
1	18872	0	0
1	18875	0	0
1	18878	0	0
1	18881	0	0
1	18884	0	0
1	18887	0	0
1	18890	0	0
1	18893	0	0
1	18896	0	0
1	18899	0	0
1	18902	0	0
1	18905	0	0
1	18908	0	0
1	18911	0	0
1	18914	0	0
1	18917	0	0
1	18920	0	0
1	18923	0	0
1	18926	0	0
1	18929	0	0
1	18932	0	0
1	18935	0	0
1	18938	0	0
1	18941	0	0
1	18944	0	0
1	18947	0	0
1	18950	0	0
1	18953	0	0
1	18956	0	0
1	18959	0	0
1	18962	0	0
1	18965	0	0
1	18968	0	0
1	18971	0	0
1	18974	0	0
1	18977	0	0
1	18980	0	0
1	18983	0	0
1	18986	0	0
1	18989	0	0
1	18992	0	0
1	18995	0	0
1	18998	0	0
1	19001	0	0
1	19004	0	0
1	19007	0	0
1	19010	0	0
1	19013	0	0
1	19016	0	0
1	19019	0	0
1	19022	0	0
1	19025	0	0
1	19028	0	0
1	19031	0	0
1	19034	0	0
1	19037	0	0
1	19040	0	0
1	19043	0	0
1	19046	0	0
1	19049	0	0
1	19052	0	0
1	19055	0	0
1	19058	0	0
1	19061	0	0
1	19064	0	0
1	19067	0	0
1	19070	0	0
1	19073	0	0
1	19076	0	0
1	19079	0	0
1	19082	0	0
1	19085	0	0
1	19088	0	0
1	19091	0	0
1	19094	0	0
1	19097	0	0
1	19100	0	0
1	19103	0	0
1	19106	0	0
1	19109	0	0
1	19112	0	0
1	19115	0	0
1	19118	0	0
1	19121	0	0
1	19124	0	0
1	19127	0	0
1	19130	0	0
1	19133	0	0
1	19136	0	0
1	19139	0	0
1	19142	0	0
1	19145	0	0
1	19148	0	0
1	19151	0	0
1	19154	0	0
1	19157	0	0
1	19160	0	0
1	19163	0	0
1	19166	0	0
1	19169	0	0
1	19172	0	0
1	19175	0	0
1	19178	0	0
1	19181	0	0
1	19184	0	0
1	19187	0	0
1	19190	0	0
1	19193	0	0
1	19196	0	0
1	19199	0	0
1	19202	0	0
1	19205	0	0
1	19208	0	0
1	19211	0	0
1	19214	0	0
1	19217	0	0
1	19220	0	0
1	19223	0	0
1	19226	0	0
1	19229	0	0
1	19232	0	0
1	19235	0	0
1	19238	0	0
1	19241	0	0
1	19244	0	0
1	19247	0	0
1	19250	0	0
1	19253	0	0
1	19256	0	0
1	19259	0	0
1	19262	0	0
1	19265	0	0
1	19268	0	0
1	19271	0	0
1	19274	0	0
1	19277	0	0
1	19280	0	0
1	19283	0	0
1	19286	0	0
1	19289	0	0
1	19292	0	0
1	19295	0	0
1	19298	0	0
1	19301	0	0
1	19304	0	0
1	19307	0	0
1	19310	0	0
1	19313	0	0
1	19316	0	0
1	19319	0	0
1	19322	0	0
1	19325	0	0
1	19328	0	0
1	19331	0	0
1	19334	0	0
1	19337	0	0
1	19340	0	0
1	19343	0	0
1	19346	0	0
1	19349	0	0
1	19352	0	0
1	19355	0	0
1	19358	0	0
1	19361	0	0
1	19364	0	0
1	19367	0	0
1	19370	0	0
1	19373	0	0
1	19376	0	0
1	19379	0	0
1	19382	0	0
1	19385	0	0
1	19388	0	0
1	19391	0	0
1	19394	0	0
1	19397	0	0
1	19400	0	0
1	19403	0	0
1	19406	0	0
1	19409	0	0
1	19412	0	0
1	19415	0	0
1	19418	0	0
1	19421	0	0
1	19424	0	0
1	19427	0	0
1	19430	0	0
1	19433	0	0
1	19436	0	0
1	19439	0	0
1	19442	0	0
1	19445	0	0
1	19448	0	0
1	19451	0	0
1	19454	0	0
1	19457	0	0
1	19460	0	0
1	19463	0	0
1	19466	0	0
1	19469	0	0
1	19472	0	0
1	19475	0	0
1	19478	0	0
1	19481	0	0
1	19484	0	0
1	19487	0	0
1	19490	0	0
1	19493	0	0
1	19496	0	0
1	19499	0	0
1	19502	0	0
1	19505	0	0
1	19508	0	0
1	19511	0	0
1	19514	0	0
1	19517	0	0
1	19520	0	0
1	19523	0	0
1	19526	0	0
1	19529	0	0
1	19532	0	0
1	19535	0	0
1	19538	0	0
1	19541	0	0
1	19544	0	0
1	19547	0	0
1	19550	0	0
1	19553	0	0
1	19556	0	0
1	19559	0	0
1	19562	0	0
1	19565	0	0
1	19568	0	0
1	19571	0	0
1	19574	0	0
1	19577	0	0
1	19580	0	0
1	19583	0	0
1	19586	0	0
1	19589	0	0
1	19592	0	0
1	19595	0	0
1	19598	0	0
1	19601	0	0
1	19604	0	0
1	19607	0	0
1	19610	0	0
1	19613	0	0
1	19616	0	0
1	19619	0	0
1	19622	0	0
1	19625	0	0
1	19628	0	0
1	19631	0	0
1	19634	0	0
1	19637	0	0
1	19640	0	0
1	19643	0	0
1	19646	0	0
1	19649	0	0
1	19652	0	0
1	19655	0	0
1	19658	0	0
1	19661	0	0
1	19664	0	0
1	19667	0	0
1	19670	0	0
1	19673	0	0
1	19676	0	0
1	19679	0	0
1	19682	0	0
1	19685	0	0
1	19688	0	0
1	19691	0	0
1	19694	0	0
1	19697	0	0
1	19700	0	0
1	19703	0	0
1	19706	0	0
1	19709	0	0
1	19712	0	0
1	19715	0	0
1	19718	0	0
1	19721	0	0
1	19724	0	0
1	19727	0	0
1	19730	0	0
1	19733	0	0
1	19736	0	0
1	19739	0	0
1	19742	0	0
1	19745	0	0
1	19748	0	0
1	19751	0	0
1	19754	0	0
1	19757	0	0
1	19760	0	0
1	19763	0	0
1	19766	0	0
1	19769	0	0
1	19772	0	0
1	19775	0	0
1	19778	0	0
1	19781	0	0
1	19784	0	0
1	19787	0	0
1	19790	0	0
1	19793	0	0
1	19796	0	0
1	19799	0	0
1	19802	0	0
1	19805	0	0
1	19808	0	0
1	19811	0	0
1	19814	0	0
1	19817	0	0
1	19820	0	0
1	19823	0	0
1	19826	0	0
1	19829	0	0
1	19832	0	0
1	19835	0	0
1	19838	0	0
1	19841	0	0
1	19844	0	0
1	19847	0	0
1	19850	0	0
1	19853	0	0
1	19856	0	0
1	19859	0	0
1	19862	0	0
1	19865	0	0
1	19868	0	0
1	19871	0	0
1	19874	0	0
1	19877	0	0
1	19880	0	0
1	19883	0	0
1	19886	0	0
1	19889	0	0
1	19892	0	0
1	19895	0	0
1	19898	0	0
1	19901	0	0
1	19904	0	0
1	19907	0	0
1	19910	0	0
1	19913	0	0
1	19916	0	0
1	19919	0	0
1	19922	0	0
1	19925	0	0
1	19928	0	0
1	19931	0	0
1	19934	0	0
1	19937	0	0
1	19940	0	0
1	19943	0	0
1	19946	0	0
1	19949	0	0
1	19952	0	0
1	19955	0	0
1	19958	0	0
1	19961	0	0
1	19964	0	0
1	19967	0	0
1	19970	0	0
1	19973	0	0
1	19976	0	0
1	19979	0	0
1	19982	0	0
1	19985	0	0
1	19988	0	0
1	19991	0	0
1	19994	0	0
1	19997	0	0
1	20000	0	0
1	20003	0	0
1	20006	0	0
1	20009	0	0
1	20012	0	0
1	20015	0	0
1	20018	0	0
1	20021	0	0
1	20024	0	0
1	20027	0	0
1	20030	0	0
1	20033	0	0
1	20036	0	0
1	20039	0	0
1	20042	0	0
1	20045	0	0
1	20048	0	0
1	20051	0	0
1	20054	0	0
1	20057	0	0
1	20060	0	0
1	20063	0	0
1	20066	0	0
1	20069	0	0
1	20072	0	0
1	20075	0	0
1	20078	0	0
1	20081	0	0
1	20084	0	0
1	20087	0	0
1	20090	0	0
1	20093	0	0
1	20096	0	0
1	20099	0	0
1	20102	0	0
1	20105	0	0
1	20108	0	0
1	20111	0	0
1	20114	0	0
1	20117	0	0
1	20120	0	0
1	20123	0	0
1	20126	0	0
1	20129	0	0
1	20132	0	0
1	20135	0	0
1	20138	0	0
1	20141	0	0
1	20144	0	0
1	20147	0	0
1	20150	0	0
1	20153	0	0
1	20156	0	0
1	20159	0	0
1	20162	0	0
1	20165	0	0
1	20168	0	0
1	20171	0	0
1	20174	0	0
1	20177	0	0
1	20180	0	0
1	20183	0	0
1	20186	0	0
1	20189	0	0
1	20192	0	0
1	20195	0	0
1	20198	0	0
1	20201	0	0
1	20204	0	0
1	20207	0	0
1	20210	0	0
1	20213	0	0
1	20216	0	0
1	20219	0	0
1	20222	0	0
1	20225	0	0
1	20228	0	0
1	20231	0	0
1	20234	0	0
1	20237	0	0
1	20240	0	0
1	20243	0	0
1	20246	0	0
1	20249	0	0
1	20252	0	0
1	20255	0	0
1	20258	0	0
1	20261	0	0
1	20264	0	0
1	20267	0	0
1	20270	0	0
1	20273	0	0
1	20276	0	0
1	20279	0	0
1	20282	0	0
1	20285	0	0
1	20288	0	0
1	20291	0	0
1	20294	0	0
1	20297	0	0
1	20300	0	0
1	20303	0	0
1	20306	0	0
1	20309	0	0
1	20312	0	0
1	20315	0	0
1	20318	0	0
1	20321	0	0
1	20324	0	0
1	20327	0	0
1	20330	0	0
1	20333	0	0
1	20336	0	0
1	20339	0	0
1	20342	0	0
1	20345	0	0
1	20348	0	0
1	20351	0	0
1	20354	0	0
1	20357	0	0
1	20360	0	0
1	20363	0	0
1	20366	0	0
1	20369	0	0
1	20372	0	0
1	20375	0	0
1	20378	0	0
1	20381	0	0
1	20384	0	0
1	20387	0	0
1	20390	0	0
1	20393	0	0
1	20396	0	0
1	20399	0	0
1	20402	0	0
1	20405	0	0
1	20408	0	0
1	20411	0	0
1	20414	0	0
1	20417	0	0
1	20420	0	0
1	20423	0	0
1	20426	0	0
1	20429	0	0
1	20432	0	0
1	20435	0	0
1	20438	0	0
1	20441	0	0
1	20444	0	0
1	20447	0	0
1	20450	0	0
1	20453	0	0
1	20456	0	0
1	20459	0	0
1	20462	0	0
1	20465	0	0
1	20468	0	0
1	20471	0	0
1	20474	0	0
1	20477	0	0
1	20480	0	0
1	20483	0	0
1	20486	0	0
1	20489	0	0
1	20492	0	0
1	20495	0	0
1	20498	0	0
1	20501	0	0
1	20504	0	0
1	20507	0	0
1	20510	0	0
1	20513	0	0
1	20516	0	0
1	20519	0	0
1	20522	0	0
1	20525	0	0
1	20528	0	0
1	20531	0	0
1	20534	0	0
1	20537	0	0
1	20540	0	0
1	20543	0	0
1	20546	0	0
1	20549	0	0
1	20552	0	0
1	20555	0	0
1	20558	0	0
1	20561	0	0
1	20564	0	0
1	20567	0	0
1	20570	0	0
1	20573	0	0
1	20576	0	0
1	20579	0	0
1	20582	0	0
1	20585	0	0
1	20588	0	0
1	20591	0	0
1	20594	0	0
1	20597	0	0
1	20600	0	0
1	20603	0	0
1	20606	0	0
1	20609	0	0
1	20612	0	0
1	20615	0	0
1	20618	0	0
1	20621	0	0
1	20624	0	0
1	20627	0	0
1	20630	0	0
1	20633	0	0
1	20636	0	0
1	20639	0	0
1	20642	0	0
1	20645	0	0
1	20648	0	0
1	20651	0	0
1	20654	0	0
1	20657	0	0
1	20660	0	0
1	20663	0	0
1	20666	0	0
1	20669	0	0
[...]
0	101742	0	1
0	101745	0	1
0	101748	0	1
0	101751	0	1
0	101754	0	1
0	101757	0	1
0	101760	0	1
0	101763	0	1
0	101766	0	1
0	101769	0	1
0	101772	0	1
0	101775	0	1
0	101778	0	1
0	101781	0	1
0	101784	0	1
0	101787	0	1
0	101790	0	1
0	101793	0	1
0	101796	0	1
0	101799	0	1
0	101802	0	1
0	101805	0	1
0	101808	0	1
0	101811	0	1
0	101814	0	1
0	101817	0	1
0	101820	0	1
0	101823	0	1
0	101826	0	1
0	101829	0	1
0	101832	0	1
0	101835	0	1
0	101838	0	1
0	101841	0	1
0	101844	0	1
0	101847	0	1
0	101850	0	1
0	101853	0	1
0	101856	0	1
0	101859	0	1
0	101862	0	1
0	101865	0	1
0	101868	0	1
0	101871	0	1
0	101874	0	1
0	101877	0	1
0	101880	0	1
0	101883	0	1
0	101886	0	1
0	101889	0	1
0	101892	0	1
0	101895	0	1
0	101898	0	1
0	101901	0	1
0	101904	0	1
0	101907	0	1
0	101910	0	1
0	101913	0	1
0	101916	0	1
0	101919	0	1
0	101922	0	1
0	101925	0	1
0	101928	0	1
0	101931	0	1
0	101934	0	1
0	101937	0	1
0	101940	0	1
0	101943	0	1
0	101946	0	1
0	101949	0	1
0	101952	0	1
0	101955	0	1
0	101958	0	1
0	101961	0	1
0	101964	0	1
0	101967	0	1
0	101970	0	1
0	101973	0	1
0	101976	0	1
0	101979	0	1
0	101982	0	1
0	101985	0	1
0	101988	0	1
0	101991	0	1
0	101994	0	1
0	101997	0	1
0	102000	0	1
0	102003	0	1
0	102006	0	1
0	102009	0	1
0	102012	0	1
0	102015	0	1
0	102018	0	1
0	102021	0	1
0	102024	0	1
0	102027	0	1
0	102030	0	1
0	102033	0	1
0	102036	0	1
0	102039	0	1
0	102042	0	1
0	102045	0	1
0	102048	0	1
0	102051	0	1
0	102054	0	1
0	102057	0	1
0	102060	0	1
0	102063	0	1
0	102066	0	1
0	102069	0	1
0	102072	0	1
0	102075	0	1
0	102078	0	1
0	102081	0	1
0	102084	0	1
0	102087	0	1
0	102090	0	1
0	102093	0	1
0	102096	0	1
0	102099	0	1
0	102102	0	1
0	102105	0	1
0	102108	0	1
0	102111	0	1
0	102114	0	1
0	102117	0	1
0	102120	0	1
0	102123	0	1
0	102126	0	1
0	102129	0	1
0	102132	0	1
0	102135	0	1
0	102138	0	1
0	102141	0	1
0	102144	0	1
0	102147	0	1
0	102150	0	1
0	102153	0	1
0	102156	0	1
0	102159	0	1
0	102162	0	1
0	102165	0	1
0	102168	0	1
0	102171	0	1
0	102174	0	1
0	102177	0	1
0	102180	0	1
0	102183	0	1
0	102186	0	1
0	102189	0	1
0	102192	0	1
0	102195	0	1
0	102198	0	1
0	102201	0	1
0	102204	0	1
0	102207	0	1
0	102210	0	1
0	102213	0	1
0	102216	0	1
0	102219	0	1
0	102222	0	1
0	102225	0	1
0	102228	0	1
0	102231	0	1
0	102234	0	1
0	102237	0	1
0	102240	0	1
0	102243	0	1
0	102246	0	1
0	102249	0	1
0	102252	0	1
0	102255	0	1
0	102258	0	1
0	102261	0	1
0	102264	0	1
0	102267	0	1
0	102270	0	1
0	102273	0	1
0	102276	0	1
0	102279	0	1
0	102282	0	1
0	102285	0	1
0	102288	0	1
0	102291	0	1
0	102294	0	1
0	102297	0	1
0	102300	0	1
0	102303	0	1
0	102306	0	1
0	102309	0	1
0	102312	0	1
0	102315	0	1
0	102318	0	1
0	102321	0	1
0	102324	0	1
0	102327	0	1
0	102330	0	1
0	102333	0	1
0	102336	0	1
0	102339	0	1
0	102342	0	1
0	102345	0	1
0	102348	0	1
0	102351	0	1
0	102354	0	1
0	102357	0	1
0	102360	0	1
0	102363	0	1
0	102366	0	1
0	102369	0	1
0	102372	0	1
0	102375	0	1
0	102378	0	1
0	102381	0	1
0	102384	0	1
0	102387	0	1
0	102390	0	1
0	102393	0	1
0	102396	0	1
1	98312	0	0
1	98315	0	0
1	98318	0	0
1	98321	0	0
1	98324	0	0
1	98327	0	0
1	98330	0	0
1	98333	0	0
1	98336	0	0
1	98339	0	0
1	98342	0	0
1	98345	0	0
1	98348	0	0
1	98351	0	0
1	98354	0	0
1	98357	0	0
1	98360	0	0
1	98363	0	0
1	98366	0	0
1	98369	0	0
1	98372	0	0
1	98375	0	0
1	98378	0	0
1	98381	0	0
1	98384	0	0
1	98387	0	0
1	98390	0	0
1	98393	0	0
1	98396	0	0
1	98399	0	0
1	98402	0	0
1	98405	0	0
1	98408	0	0
1	98411	0	0
1	98414	0	0
1	98417	0	0
1	98420	0	0
1	98423	0	0
1	98426	0	0
1	98429	0	0
1	98432	0	0
1	98435	0	0
1	98438	0	0
1	98441	0	0
1	98444	0	0
1	98447	0	0
1	98450	0	0
1	98453	0	0
1	98456	0	0
1	98459	0	0
1	98462	0	0
1	98465	0	0
1	98468	0	0
1	98471	0	0
1	98474	0	0
1	98477	0	0
1	98480	0	0
1	98483	0	0
1	98486	0	0
1	98489	0	0
1	98492	0	0
1	98495	0	0
1	98498	0	0
1	98501	0	0
1	98504	0	0
1	98507	0	0
1	98510	0	0
1	98513	0	0
1	98516	0	0
1	98519	0	0
1	98522	0	0
1	98525	0	0
1	98528	0	0
1	98531	0	0
1	98534	0	0
1	98537	0	0
1	98540	0	0
1	98543	0	0
1	98546	0	0
1	98549	0	0
1	98552	0	0
1	98555	0	0
1	98558	0	0
1	98561	0	0
1	98564	0	0
1	98567	0	0
1	98570	0	0
1	98573	0	0
1	98576	0	0
1	98579	0	0
1	98582	0	0
1	98585	0	0
1	98588	0	0
1	98591	0	0
1	98594	0	0
1	98597	0	0
1	98600	0	0
1	98603	0	0
1	98606	0	0
1	98609	0	0
1	98612	0	0
1	98615	0	0
1	98618	0	0
1	98621	0	0
1	98624	0	0
1	98627	0	0
1	98630	0	0
1	98633	0	0
1	98636	0	0
1	98639	0	0
1	98642	0	0
1	98645	0	0
1	98648	0	0
1	98651	0	0
1	98654	0	0
1	98657	0	0
1	98660	0	0
1	98663	0	0
1	98666	0	0
1	98669	0	0
1	98672	0	0
1	98675	0	0
1	98678	0	0
1	98681	0	0
1	98684	0	0
1	98687	0	0
1	98690	0	0
1	98693	0	0
1	98696	0	0
1	98699	0	0
1	98702	0	0
1	98705	0	0
1	98708	0	0
1	98711	0	0
1	98714	0	0
1	98717	0	0
1	98720	0	0
1	98723	0	0
1	98726	0	0
1	98729	0	0
1	98732	0	0
1	98735	0	0
1	98738	0	0
1	98741	0	0
1	98744	0	0
1	98747	0	0
1	98750	0	0
1	98753	0	0
1	98756	0	0
1	98759	0	0
1	98762	0	0
1	98765	0	0
1	98768	0	0
1	98771	0	0
1	98774	0	0
1	98777	0	0
1	98780	0	0
1	98783	0	0
1	98786	0	0
1	98789	0	0
1	98792	0	0
1	98795	0	0
1	98798	0	0
1	98801	0	0
1	98804	0	0
1	98807	0	0
1	98810	0	0
1	98813	0	0
1	98816	0	0
1	98819	0	0
1	98822	0	0
1	98825	0	0
1	98828	0	0
1	98831	0	0
1	98834	0	0
1	98837	0	0
1	98840	0	0
1	98843	0	0
1	98846	0	0
1	98849	0	0
1	98852	0	0
1	98855	0	0
1	98858	0	0
1	98861	0	0
1	98864	0	0
1	98867	0	0
1	98870	0	0
1	98873	0	0
1	98876	0	0
1	98879	0	0
1	98882	0	0
1	98885	0	0
1	98888	0	0
1	98891	0	0
1	98894	0	0
1	98897	0	0
1	98900	0	0
1	98903	0	0
1	98906	0	0
1	98909	0	0
1	98912	0	0
1	98915	0	0
1	98918	0	0
1	98921	0	0
1	98924	0	0
1	98927	0	0
1	98930	0	0
1	98933	0	0
1	98936	0	0
1	98939	0	0
1	98942	0	0
1	98945	0	0
1	98948	0	0
1	98951	0	0
1	98954	0	0
1	98957	0	0
1	98960	0	0
1	98963	0	0
1	98966	0	0
1	98969	0	0
1	98972	0	0
1	98975	0	0
1	98978	0	0
1	98981	0	0
1	98984	0	0
1	98987	0	0
1	98990	0	0
1	98993	0	0
1	98996	0	0
1	98999	0	0
1	99002	0	0
1	99005	0	0
1	99008	0	0
1	99011	0	0
1	99014	0	0
1	99017	0	0
1	99020	0	0
1	99023	0	0
1	99026	0	0
1	99029	0	0
1	99032	0	0
1	99035	0	0
1	99038	0	0
1	99041	0	0
1	99044	0	0
1	99047	0	0
1	99050	0	0
1	99053	0	0
1	99056	0	0
1	99059	0	0
1	99062	0	0
1	99065	0	0
1	99068	0	0
1	99071	0	0
1	99074	0	0
1	99077	0	0
1	99080	0	0
1	99083	0	0
1	99086	0	0
1	99089	0	0
1	99092	0	0
1	99095	0	0
1	99098	0	0
1	99101	0	0
1	99104	0	0
1	99107	0	0
1	99110	0	0
1	99113	0	0
1	99116	0	0
1	99119	0	0
1	99122	0	0
1	99125	0	0
1	99128	0	0
1	99131	0	0
1	99134	0	0
1	99137	0	0
1	99140	0	0
1	99143	0	0
1	99146	0	0
1	99149	0	0
1	99152	0	0
1	99155	0	0
1	99158	0	0
1	99161	0	0
1	99164	0	0
1	99167	0	0
1	99170	0	0
1	99173	0	0
1	99176	0	0
1	99179	0	0
1	99182	0	0
1	99185	0	0
1	99188	0	0
1	99191	0	0
1	99194	0	0
1	99197	0	0
1	99200	0	0
1	99203	0	0
1	99206	0	0
1	99209	0	0
1	99212	0	0
1	99215	0	0
1	99218	0	0
1	99221	0	0
1	99224	0	0
1	99227	0	0
1	99230	0	0
1	99233	0	0
1	99236	0	0
1	99239	0	0
1	99242	0	0
1	99245	0	0
1	99248	0	0
1	99251	0	0
1	99254	0	0
1	99257	0	0
1	99260	0	0
1	99263	0	0
1	99266	0	0
1	99269	0	0
1	99272	0	0
1	99275	0	0
1	99278	0	0
1	99281	0	0
1	99284	0	0
1	99287	0	0
1	99290	0	0
1	99293	0	0
1	99296	0	0
1	99299	0	0
1	99302	0	0
1	99305	0	0
1	99308	0	0
1	99311	0	0
1	99314	0	0
1	99317	0	0
1	99320	0	0
1	99323	0	0
1	99326	0	0
1	99329	0	0
1	99332	0	0
1	99335	0	0
1	99338	0	0
1	99341	0	0
1	99344	0	0
1	99347	0	0
1	99350	0	0
1	99353	0	0
1	99356	0	0
1	99359	0	0
1	99362	0	0
1	99365	0	0
1	99368	0	0
1	99371	0	0
1	99374	0	0
1	99377	0	0
1	99380	0	0
1	99383	0	0
1	99386	0	0
1	99389	0	0
1	99392	0	0
1	99395	0	0
1	99398	0	0
1	99401	0	0
1	99404	0	0
1	99407	0	0
1	99410	0	0
1	99413	0	0
1	99416	0	0
1	99419	0	0
1	99422	0	0
1	99425	0	0
1	99428	0	0
1	99431	0	0
1	99434	0	0
1	99437	0	0
1	99440	0	0
1	99443	0	0
1	99446	0	0
1	99449	0	0
1	99452	0	0
1	99455	0	0
1	99458	0	0
1	99461	0	0
1	99464	0	0
1	99467	0	0
1	99470	0	0
1	99473	0	0
1	99476	0	0
1	99479	0	0
1	99482	0	0
1	99485	0	0
1	99488	0	0
1	99491	0	0
1	99494	0	0
1	99497	0	0
1	99500	0	0
1	99503	0	0
1	99506	0	0
1	99509	0	0
1	99512	0	0
1	99515	0	0
1	99518	0	0
1	99521	0	0
1	99524	0	0
1	99527	0	0
1	99530	0	0
1	99533	0	0
1	99536	0	0
1	99539	0	0
1	99542	0	0
1	99545	0	0
1	99548	0	0
1	99551	0	0
1	99554	0	0
1	99557	0	0
1	99560	0	0
1	99563	0	0
1	99566	0	0
1	99569	0	0
1	99572	0	0
1	99575	0	0
1	99578	0	0
1	99581	0	0
1	99584	0	0
1	99587	0	0
1	99590	0	0
1	99593	0	0
1	99596	0	0
1	99599	0	0
1	99602	0	0
1	99605	0	0
1	99608	0	0
1	99611	0	0
1	99614	0	0
1	99617	0	0
1	99620	0	0
1	99623	0	0
1	99626	0	0
1	99629	0	0
1	99632	0	0
1	99635	0	0
1	99638	0	0
1	99641	0	0
1	99644	0	0
1	99647	0	0
1	99650	0	0
1	99653	0	0
1	99656	0	0
1	99659	0	0
1	99662	0	0
1	99665	0	0
1	99668	0	0
1	99671	0	0
1	99674	0	0
1	99677	0	0
1	99680	0	0
1	99683	0	0
1	99686	0	0
1	99689	0	0
1	99692	0	0
1	99695	0	0
1	99698	0	0
1	99701	0	0
1	99704	0	0
1	99707	0	0
1	99710	0	0
1	99713	0	0
1	99716	0	0
1	99719	0	0
1	99722	0	0
1	99725	0	0
1	99728	0	0
1	99731	0	0
1	99734	0	0
1	99737	0	0
1	99740	0	0
1	99743	0	0
1	99746	0	0
1	99749	0	0
1	99752	0	0
1	99755	0	0
1	99758	0	0
1	99761	0	0
1	99764	0	0
1	99767	0	0
1	99770	0	0
1	99773	0	0
1	99776	0	0
1	99779	0	0
1	99782	0	0
1	99785	0	0
1	99788	0	0
1	99791	0	0
1	99794	0	0
1	99797	0	0
1	99800	0	0
1	99803	0	0
1	99806	0	0
1	99809	0	0
1	99812	0	0
1	99815	0	0
1	99818	0	0
1	99821	0	0
1	99824	0	0
1	99827	0	0
1	99830	0	0
1	99833	0	0
1	99836	0	0
1	99839	0	0
1	99842	0	0
1	99845	0	0
1	99848	0	0
1	99851	0	0
1	99854	0	0
1	99857	0	0
1	99860	0	0
1	99863	0	0
1	99866	0	0
1	99869	0	0
1	99872	0	0
1	99875	0	0
1	99878	0	0
1	99881	0	0
1	99884	0	0
1	99887	0	0
1	99890	0	0
1	99893	0	0
1	99896	0	0
1	99899	0	0
1	99902	0	0
1	99905	0	0
1	99908	0	0
1	99911	0	0
1	99914	0	0
1	99917	0	0
1	99920	0	0
1	99923	0	0
1	99926	0	0
1	99929	0	0
1	99932	0	0
1	99935	0	0
1	99938	0	0
1	99941	0	0
1	99944	0	0
1	99947	0	0
1	99950	0	0
1	99953	0	0
1	99956	0	0
1	99959	0	0
1	99962	0	0
1	99965	0	0
1	99968	0	0
1	99971	0	0
1	99974	0	0
1	99977	0	0
1	99980	0	0
1	99983	0	0
1	99986	0	0
1	99989	0	0
1	99992	0	0
1	99995	0	0
1	99998	0	0
1	100001	0	0
1	100004	0	0
1	100007	0	0
1	100010	0	0
1	100013	0	0
1	100016	0	0
1	100019	0	0
1	100022	0	0
1	100025	0	0
1	100028	0	0
1	100031	0	0
1	100034	0	0
1	100037	0	0
1	100040	0	0
1	100043	0	0
1	100046	0	0
1	100049	0	0
1	100052	0	0
1	100055	0	0
1	100058	0	0
1	100061	0	0
1	100064	0	0
1	100067	0	0
1	100070	0	0
1	100073	0	0
1	100076	0	0
1	100079	0	0
1	100082	0	0
1	100085	0	0
1	100088	0	0
1	100091	0	0
1	100094	0	0
1	100097	0	0
1	100100	0	0
1	100103	0	0
1	100106	0	0
1	100109	0	0
1	100112	0	0
1	100115	0	0
1	100118	0	0
1	100121	0	0
1	100124	0	0
1	100127	0	0
1	100130	0	0
1	100133	0	0
1	100136	0	0
1	100139	0	0
1	100142	0	0
1	100145	0	0
1	100148	0	0
1	100151	0	0
1	100154	0	0
1	100157	0	0
1	100160	0	0
1	100163	0	0
1	100166	0	0
1	100169	0	0
1	100172	0	0
1	100175	0	0
1	100178	0	0
1	100181	0	0
1	100184	0	0
1	100187	0	0
1	100190	0	0
1	100193	0	0
1	100196	0	0
1	100199	0	0
1	100202	0	0
1	100205	0	0
1	100208	0	0
1	100211	0	0
1	100214	0	0
1	100217	0	0
1	100220	0	0
1	100223	0	0
1	100226	0	0
1	100229	0	0
1	100232	0	0
1	100235	0	0
1	100238	0	0
1	100241	0	0
1	100244	0	0
1	100247	0	0
1	100250	0	0
1	100253	0	0
1	100256	0	0
1	100259	0	0
1	100262	0	0
1	100265	0	0
1	100268	0	0
1	100271	0	0
1	100274	0	0
1	100277	0	0
1	100280	0	0
1	100283	0	0
1	100286	0	0
1	100289	0	0
1	100292	0	0
1	100295	0	0
1	100298	0	0
1	100301	0	0
1	100304	0	0
1	100307	0	0
1	100310	0	0
1	100313	0	0
1	100316	0	0
1	100319	0	0
1	100322	0	0
1	100325	0	0
1	100328	0	0
1	100331	0	0
1	100334	0	0
1	100337	0	0
1	100340	0	0
1	100343	0	0
1	100346	0	0
1	100349	0	0
1	100352	0	0
1	100355	0	0
1	100358	0	0
1	100361	0	0
1	100364	0	0
1	100367	0	0
1	100370	0	0
1	100373	0	0
1	100376	0	0
1	100379	0	0
1	100382	0	0
1	100385	0	0
1	100388	0	0
1	100391	0	0
1	100394	0	0
1	100397	0	0
1	100400	0	0
1	100403	0	0
1	100406	0	0
1	100409	0	0
1	100412	0	0
1	100415	0	0
1	100418	0	0
1	100421	0	0
1	100424	0	0
1	100427	0	0
1	100430	0	0
1	100433	0	0
1	100436	0	0
1	100439	0	0
1	100442	0	0
1	100445	0	0
1	100448	0	0
1	100451	0	0
1	100454	0	0
1	100457	0	0
1	100460	0	0
1	100463	0	0
1	100466	0	0
1	100469	0	0
1	100472	0	0
1	100475	0	0
1	100478	0	0
1	100481	0	0
1	100484	0	0
1	100487	0	0
1	100490	0	0
1	100493	0	0
1	100496	0	0
1	100499	0	0
1	100502	0	0
1	100505	0	0
1	100508	0	0
1	100511	0	0
1	100514	0	0
1	100517	0	0
1	100520	0	0
1	100523	0	0
1	100526	0	0
1	100529	0	0
1	100532	0	0
1	100535	0	0
1	100538	0	0
1	100541	0	0
1	100544	0	0
1	100547	0	0
1	100550	0	0
1	100553	0	0
1	100556	0	0
1	100559	0	0
1	100562	0	0
1	100565	0	0
1	100568	0	0
1	100571	0	0
1	100574	0	0
1	100577	0	0
1	100580	0	0
1	100583	0	0
1	100586	0	0
1	100589	0	0
1	100592	0	0
1	100595	0	0
1	100598	0	0
1	100601	0	0
1	100604	0	0
1	100607	0	0
1	100610	0	0
1	100613	0	0
1	100616	0	0
1	100619	0	0
1	100622	0	0
1	100625	0	0
1	100628	0	0
1	100631	0	0
1	100634	0	0
1	100637	0	0
1	100640	0	0
1	100643	0	0
1	100646	0	0
1	100649	0	0
1	100652	0	0
1	100655	0	0
1	100658	0	0
1	100661	0	0
1	100664	0	0
1	100667	0	0
1	100670	0	0
1	100673	0	0
1	100676	0	0
1	100679	0	0
1	100682	0	0
1	100685	0	0
1	100688	0	0
1	100691	0	0
1	100694	0	0
1	100697	0	0
1	100700	0	0
1	100703	0	0
1	100706	0	0
1	100709	0	0
1	100712	0	0
1	100715	0	0
1	100718	0	0
1	100721	0	0
1	100724	0	0
1	100727	0	0
1	100730	0	0
1	100733	0	0
1	100736	0	0
1	100739	0	0
1	100742	0	0
1	100745	0	0
1	100748	0	0
1	100751	0	0
1	100754	0	0
1	100757	0	0
1	100760	0	0
1	100763	0	0
1	100766	0	0
1	100769	0	0
1	100772	0	0
1	100775	0	0
1	100778	0	0
1	100781	0	0
1	100784	0	0
1	100787	0	0
1	100790	0	0
1	100793	0	0
1	100796	0	0
1	100799	0	0
1	100802	0	0
1	100805	0	0
1	100808	0	0
1	100811	0	0
1	100814	0	0
1	100817	0	0
1	100820	0	0
1	100823	0	0
1	100826	0	0
1	100829	0	0
1	100832	0	0
1	100835	0	0
1	100838	0	0
1	100841	0	0
1	100844	0	0
1	100847	0	0
1	100850	0	0
1	100853	0	0
1	100856	0	0
1	100859	0	0
1	100862	0	0
1	100865	0	0
1	100868	0	0
1	100871	0	0
1	100874	0	0
1	100877	0	0
1	100880	0	0
1	100883	0	0
1	100886	0	0
1	100889	0	0
1	100892	0	0
1	100895	0	0
1	100898	0	0
1	100901	0	0
1	100904	0	0
1	100907	0	0
1	100910	0	0
1	100913	0	0
1	100916	0	0
1	100919	0	0
1	100922	0	0
1	100925	0	0
1	100928	0	0
1	100931	0	0
1	100934	0	0
1	100937	0	0
1	100940	0	0
1	100943	0	0
1	100946	0	0
1	100949	0	0
1	100952	0	0
1	100955	0	0
1	100958	0	0
1	100961	0	0
1	100964	0	0
1	100967	0	0
1	100970	0	0
1	100973	0	0
1	100976	0	0
1	100979	0	0
1	100982	0	0
1	100985	0	0
1	100988	0	0
1	100991	0	0
1	100994	0	0
1	100997	0	0
1	101000	0	0
1	101003	0	0
1	101006	0	0
1	101009	0	0
1	101012	0	0
1	101015	0	0
1	101018	0	0
1	101021	0	0
1	101024	0	0
1	101027	0	0
1	101030	0	0
1	101033	0	0
1	101036	0	0
1	101039	0	0
1	101042	0	0
1	101045	0	0
1	101048	0	0
1	101051	0	0
1	101054	0	0
1	101057	0	0
1	101060	0	0
1	101063	0	0
1	101066	0	0
1	101069	0	0
1	101072	0	0
1	101075	0	0
1	101078	0	0
1	101081	0	0
1	101084	0	0
1	101087	0	0
1	101090	0	0
1	101093	0	0
1	101096	0	0
1	101099	0	0
1	101102	0	0
1	101105	0	0
1	101108	0	0
1	101111	0	0
1	101114	0	0
1	101117	0	0
1	101120	0	0
1	101123	0	0
1	101126	0	0
1	101129	0	0
1	101132	0	0
1	101135	0	0
1	101138	0	0
1	101141	0	0
1	101144	0	0
1	101147	0	0
1	101150	0	0
1	101153	0	0
1	101156	0	0
1	101159	0	0
1	101162	0	0
1	101165	0	0
1	101168	0	0
1	101171	0	0
1	101174	0	0
1	101177	0	0
1	101180	0	0
1	101183	0	0
1	101186	0	0
1	101189	0	0
1	101192	0	0
1	101195	0	0
1	101198	0	0
1	101201	0	0
1	101204	0	0
1	101207	0	0
1	101210	0	0
1	101213	0	0
1	101216	0	0
1	101219	0	0
1	101222	0	0
1	101225	0	0
1	101228	0	0
1	101231	0	0
1	101234	0	0
1	101237	0	0
1	101240	0	0
1	101243	0	0
1	101246	0	0
1	101249	0	0
1	101252	0	0
1	101255	0	0
1	101258	0	0
1	101261	0	0
1	101264	0	0
1	101267	0	0
1	101270	0	0
1	101273	0	0
1	101276	0	0
1	101279	0	0
1	101282	0	0
1	101285	0	0
1	101288	0	0
1	101291	0	0
1	101294	0	0
1	101297	0	0
1	101300	0	0
1	101303	0	0
1	101306	0	0
1	101309	0	0
1	101312	0	0
1	101315	0	0
1	101318	0	0
1	101321	0	0
1	101324	0	0
1	101327	0	0
1	101330	0	0
1	101333	0	0
1	101336	0	0
1	101339	0	0
1	101342	0	0
1	101345	0	0
1	101348	0	0
1	101351	0	0
1	101354	0	0
1	101357	0	0
1	101360	0	0
1	101363	0	0
1	101366	0	0
1	101369	0	0
1	101372	0	0
1	101375	0	0
1	101378	0	0
1	101381	0	0
1	101384	0	0
1	101387	0	0
1	101390	0	0
1	101393	0	0
1	101396	0	0
1	101399	0	0
1	101402	0	0
1	101405	0	0
1	101408	0	0
1	101411	0	0
1	101414	0	0
1	101417	0	0
1	101420	0	0
1	101423	0	0
1	101426	0	0
1	101429	0	0
1	101432	0	0
1	101435	0	0
1	101438	0	0
1	101441	0	0
1	101444	0	0
1	101447	0	0
1	101450	0	0
1	101453	0	0
1	101456	0	0
1	101459	0	0
1	101462	0	0
1	101465	0	0
1	101468	0	0
1	101471	0	0
1	101474	0	0
1	101477	0	0
1	101480	0	0
1	101483	0	0
1	101486	0	0
1	101489	0	0
1	101492	0	0
1	101495	0	0
1	101498	0	0
1	101501	0	0
1	101504	0	0
1	101507	0	0
1	101510	0	0
1	101513	0	0
1	101516	0	0
1	101519	0	0
1	101522	0	0
1	101525	0	0
1	101528	0	0
1	101531	0	0
1	101534	0	0
1	101537	0	0
1	101540	0	0
1	101543	0	0
1	101546	0	0
1	101549	0	0
1	101552	0	0
1	101555	0	0
1	101558	0	0
1	101561	0	0
1	101564	0	0
1	101567	0	0
1	101570	0	0
1	101573	0	0
1	101576	0	0
1	101579	0	0
1	101582	0	0
1	101585	0	0
1	101588	0	0
1	101591	0	0
1	101594	0	0
1	101597	0	0
1	101600	0	0
1	101603	0	0
1	101606	0	0
1	101609	0	0
1	101612	0	0
1	101615	0	0
1	101618	0	0
1	101621	0	0
1	101624	0	0
1	101627	0	0
1	101630	0	0
1	101633	0	0
1	101636	0	0
1	101639	0	0
1	101642	0	0
1	101645	0	0
1	101648	0	0
1	101651	0	0
1	101654	0	0
1	101657	0	0
1	101660	0	0
1	101663	0	0
1	101666	0	0
1	101669	0	0
1	101672	0	0
1	101675	0	0
1	101678	0	0
1	101681	0	0
1	101684	0	0
1	101687	0	0
1	101690	0	0
1	101693	0	0
1	101696	0	0
1	101699	0	0
1	101702	0	0
1	101705	0	0
1	101708	0	0
1	101711	0	0
1	101714	0	0
1	101717	0	0
1	101720	0	0
1	101723	0	0
1	101726	0	0
1	101729	0	0
1	101732	0	0
1	101735	0	0
1	101738	0	0
1	101741	0	0
1	101744	0	0
1	101747	0	0
1	101750	0	0
1	101753	0	0
1	101756	0	0
1	101759	0	0
1	101762	0	0
1	101765	0	0
1	101768	0	0
1	101771	0	0
1	101774	0	0
1	101777	0	0
1	101780	0	0
1	101783	0	0
1	101786	0	0
1	101789	0	0
1	101792	0	0
1	101795	0	0
1	101798	0	0
1	101801	0	0
1	101804	0	0
1	101807	0	0
1	101810	0	0
1	101813	0	0
1	101816	0	0
1	101819	0	0
1	101822	0	0
1	101825	0	0
1	101828	0	0
1	101831	0	0
1	101834	0	0
1	101837	0	0
1	101840	0	0
1	101843	0	0
1	101846	0	0
1	101849	0	0
1	101852	0	0
1	101855	0	0
1	101858	0	0
1	101861	0	0
1	101864	0	0
1	101867	0	0
1	101870	0	0
1	101873	0	0
1	101876	0	0
1	101879	0	0
1	101882	0	0
1	101885	0	0
1	101888	0	0
1	101891	0	0
1	101894	0	0
1	101897	0	0
1	101900	0	0
1	101903	0	0
1	101906	0	0
1	101909	0	0
1	101912	0	0
1	101915	0	0
1	101918	0	0
1	101921	0	0
1	101924	0	0
1	101927	0	0
1	101930	0	0
1	101933	0	0
1	101936	0	0
1	101939	0	0
1	101942	0	0
1	101945	0	0
1	101948	0	0
1	101951	0	0
1	101954	0	0
1	101957	0	0
1	101960	0	0
1	101963	0	0
1	101966	0	0
1	101969	0	0
1	101972	0	0
1	101975	0	0
1	101978	0	0
1	101981	0	0
1	101984	0	0
1	101987	0	0
1	101990	0	0
1	101993	0	0
1	101996	0	0
1	101999	0	0
1	102002	0	0
1	102005	0	0
1	102008	0	0
1	102011	0	0
1	102014	0	0
1	102017	0	0
1	102020	0	0
1	102023	0	0
1	102026	0	0
1	102029	0	0
1	102032	0	0
1	102035	0	0
1	102038	0	0
1	102041	0	0
1	102044	0	0
1	102047	0	0
1	102050	0	0
1	102053	0	0
1	102056	0	0
1	102059	0	0
1	102062	0	0
1	102065	0	0
1	102068	0	0
1	102071	0	0
1	102074	0	0
1	102077	0	0
1	102080	0	0
1	102083	0	0
1	102086	0	0
1	102089	0	0
1	102092	0	0
1	102095	0	0
1	102098	0	0
1	102101	0	0
1	102104	0	0
1	102107	0	0
1	102110	0	0
1	102113	0	0
1	102116	0	0
1	102119	0	0
1	102122	0	0
1	102125	0	0
1	102128	0	0
1	102131	0	0
1	102134	0	0
1	102137	0	0
1	102140	0	0
1	102143	0	0
1	102146	0	0
1	102149	0	0
1	102152	0	0
1	102155	0	0
1	102158	0	0
1	102161	0	0
1	102164	0	0
1	102167	0	0
1	102170	0	0
1	102173	0	0
1	102176	0	0
1	102179	0	0
1	102182	0	0
1	102185	0	0
1	102188	0	0
1	102191	0	0
1	102194	0	0
1	102197	0	0
1	102200	0	0
1	102203	0	0
1	102206	0	0
1	102209	0	0
1	102212	0	0
1	102215	0	0
1	102218	0	0
1	102221	0	0
1	102224	0	0
1	102227	0	0
1	102230	0	0
1	102233	0	0
1	102236	0	0
1	102239	0	0
1	102242	0	0
1	102245	0	0
1	102248	0	0
1	102251	0	0
1	102254	0	0
1	102257	0	0
1	102260	0	0
1	102263	0	0
1	102266	0	0
1	102269	0	0
1	102272	0	0
1	102275	0	0
1	102278	0	0
1	102281	0	0
1	102284	0	0
1	102287	0	0
1	102290	0	0
1	102293	0	0
1	102296	0	0
1	102299	0	0
1	102302	0	0
1	102305	0	0
1	102308	0	0
1	102311	0	0
1	102314	0	0
1	102317	0	0
1	102320	0	0
1	102323	0	0
1	102326	0	0
1	102329	0	0
1	102332	0	0
1	102335	0	0
1	102338	0	0
1	102341	0	0
1	102344	0	0
1	102347	0	0
1	102350	0	0
1	102353	0	0
1	102356	0	0
1	102359	0	0
1	102362	0	0
1	102365	0	0
1	102368	0	0
1	102371	0	0
1	102374	0	0
1	102377	0	0
1	102380	0	0
1	102383	0	0
1	102386	0	0
1	102389	0	0
1	102392	0	0
1	102395	0	0

